
*** ChampSim Multicore Out-of-Order Simulator ***

Warmup Instructions: 50000000
Simulation Instructions: 50000000
Number of CPUs: 1
LLC sets: 2048
LLC ways: 16
Off-chip DRAM Size: 4096 MB Channels: 1 Width: 64-bit Data Rate: 6400 MT/s
CPU 0 runs ./tracer/traces/621.wrf_s-6673B.champsimtrace.xz
.xz
CPU 0 Bimodal branch predictor
BTB has LRU replacement policy
ITLB has LRU replacement policy
DTLB has LRU replacement policy
STLB has LRU replacement policy
L1I has LRU replacement policy
L1D has LRU replacement policy
L2C has LRU replacement policy
Heartbeat CPU 0 instructions: 10000002 cycles: 3558527 heartbeat IPC: 2.81015 cumulative IPC: 2.81015 (Simulation time: 0 hr 1 min 16 sec) 
Heartbeat CPU 0 instructions: 20000003 cycles: 6463906 heartbeat IPC: 3.44189 cumulative IPC: 3.0941 (Simulation time: 0 hr 2 min 23 sec) 
Heartbeat CPU 0 instructions: 30000000 cycles: 9283995 heartbeat IPC: 3.54599 cumulative IPC: 3.23137 (Simulation time: 0 hr 3 min 19 sec) 
Heartbeat CPU 0 instructions: 40000002 cycles: 12169261 heartbeat IPC: 3.46589 cumulative IPC: 3.28697 (Simulation time: 0 hr 4 min 8 sec) 
Heartbeat CPU 0 instructions: 50000000 cycles: 15072722 heartbeat IPC: 3.44416 cumulative IPC: 3.31725 (Simulation time: 0 hr 5 min 4 sec) 

Warmup complete CPU 0 instructions: 50000004 cycles: 15072723 (Simulation time: 0 hr 5 min 4 sec) 

Heartbeat CPU 0 instructions: 60000001 cycles: 28807509 heartbeat IPC: 0.728078 cumulative IPC: 0.728078 (Simulation time: 0 hr 6 min 41 sec) 
Heartbeat CPU 0 instructions: 70000000 cycles: 44264209 heartbeat IPC: 0.646969 cumulative IPC: 0.685131 (Simulation time: 0 hr 8 min 0 sec) 
Heartbeat CPU 0 instructions: 80000000 cycles: 56505228 heartbeat IPC: 0.816925 cumulative IPC: 0.724069 (Simulation time: 0 hr 8 min 54 sec) 
Heartbeat CPU 0 instructions: 90000003 cycles: 70145219 heartbeat IPC: 0.733139 cumulative IPC: 0.726315 (Simulation time: 0 hr 10 min 5 sec) 
Heartbeat CPU 0 instructions: 100000000 cycles: 86969883 heartbeat IPC: 0.594365 cumulative IPC: 0.695438 (Simulation time: 0 hr 12 min 1 sec) 
Finished CPU 0 instructions: 50000002 cycles: 71897163 cumulative IPC: 0.695438 (Simulation time: 0 hr 12 min 1 sec) 

ChampSim completed all CPUs

Region of Interest Statistics

CPU 0 cumulative IPC: 0.695438 instructions: 50000002 cycles: 71897163
ITLB TOTAL     ACCESS:    7546494  HIT:    7546413  MISS:         81  HIT %:    99.9989  MISS %: 0.00107335   MPKI: 0.00162
ITLB LOAD TRANSLATION ACCESS:    7546494  HIT:    7546413  MISS:         81  HIT %:    99.9989  MISS %: 0.00107335   MPKI: 0.00162
ITLB PREFETCH  REQUESTED:          0  ISSUED:          0  USEFUL:          0  USELESS:          0
ITLB USEFUL LOAD PREFETCHES:          0 PREFETCH ISSUED TO LOWER LEVEL:          0  ACCURACY: -nan
ITLB TIMELY PREFETCHES:          0 LATE PREFETCHES: 0 DROPPED PREFETCHES: 0
ITLB PREFETCHES SAME FILL-ORIGIN LEVEL: 0 DIFFERENT FILL-ORIGIN LEVEL: 0
ITLB AVERAGE MISS LATENCY: 223.099 cycles
ITLB RQ	ACCESS:    9399431	FORWARD:          0	MERGED:    1852908	TO_CACHE:    7546523

DTLB TOTAL     ACCESS:   14649618  HIT:   14501829  MISS:     147789  HIT %:    98.9912  MISS %:    1.00882   MPKI: 2.95578
DTLB LOAD TRANSLATION ACCESS:   14649618  HIT:   14501829  MISS:     147789  HIT %:    98.9912  MISS %:    1.00882   MPKI: 2.95578
DTLB PREFETCH  REQUESTED:          0  ISSUED:          0  USEFUL:          0  USELESS:          0
DTLB USEFUL LOAD PREFETCHES:          0 PREFETCH ISSUED TO LOWER LEVEL:          0  ACCURACY: -nan
DTLB TIMELY PREFETCHES:          0 LATE PREFETCHES: 0 DROPPED PREFETCHES: 0
DTLB PREFETCHES SAME FILL-ORIGIN LEVEL: 0 DIFFERENT FILL-ORIGIN LEVEL: 0
DTLB AVERAGE MISS LATENCY: 18.9957 cycles
DTLB RQ	ACCESS:   16608837	FORWARD:          0	MERGED:    1938312	TO_CACHE:   14670525

STLB TOTAL     ACCESS:     909123  HIT:     893851  MISS:      15272  HIT %:    98.3201  MISS %:    1.67986   MPKI: 0.30544
STLB LOAD TRANSLATION ACCESS:     147870  HIT:     132598  MISS:      15272  HIT %:     89.672  MISS %:     10.328   MPKI: 0.30544
STLB TRANSLATION FROM L1D PREFETCHER ACCESS:     761253  HIT:     761253  MISS:          0  HIT %:        100  MISS %:          0   MPKI: 0
STLB PREFETCH  REQUESTED:          0  ISSUED:          0  USEFUL:          0  USELESS:          0
STLB USEFUL LOAD PREFETCHES:          0 PREFETCH ISSUED TO LOWER LEVEL:          0  ACCURACY: -nan
STLB TIMELY PREFETCHES:          0 LATE PREFETCHES: 0 DROPPED PREFETCHES: 0
STLB PREFETCHES SAME FILL-ORIGIN LEVEL: 0 DIFFERENT FILL-ORIGIN LEVEL: 0
STLB AVERAGE MISS LATENCY: 96.9707 cycles
STLB RQ	ACCESS:    1361432	FORWARD:          0	MERGED:     452309	TO_CACHE:     909123

STLB Hit, L1D data hit: 0
STLB Hit, L2C data hit: 0
STLB Hit, LLC data hit: 0
STLB Hit, LLC data miss: 0
STLB STLB hints to L2: 0
L1D TOTAL     ACCESS:   17104115  HIT:   15265082  MISS:    1839033  HIT %:     89.248  MISS %:     10.752   MPKI: 36.7807
L1D LOAD      ACCESS:   12960073  HIT:   12369145  MISS:     590928  HIT %:    95.4404  MISS %:     4.5596   MPKI: 11.8186
L1D RFO       ACCESS:    3101532  HIT:    2893219  MISS:     208313  HIT %:    93.2835  MISS %:    6.71645   MPKI: 4.16626
L1D PREFETCH  ACCESS:    1042510  HIT:       2718  MISS:    1039792  HIT %:   0.260717  MISS %:    99.7393   MPKI: 20.7958
AGUS PREFETCH L1 MISS: 0
L1D PREFETCH  REQUESTED:    2429128  ISSUED:    2429128  USEFUL:     926979  USELESS:     112827
L1D USEFUL LOAD PREFETCHES:     926979 PREFETCH ISSUED TO LOWER LEVEL:    1200114  ACCURACY: 77.2409
L1D TIMELY PREFETCHES:     926979 LATE PREFETCHES: 63216 DROPPED PREFETCHES: 0
L1D PREFETCHES SAME FILL-ORIGIN LEVEL: 1103395 DIFFERENT FILL-ORIGIN LEVEL: 96719
L1D AVERAGE MISS LATENCY: 1.97142e+06 cycles
L1D RQ	ACCESS:   16703840	FORWARD:          0	MERGED:    3568740	TO_CACHE:   13125201
L1D WQ	ACCESS:    3489006	FORWARD:       9923	MERGED:       5370	TO_CACHE:    3483636
L1D PQ	ACCESS:    1215566	FORWARD:          0	MERGED:       1980	TO_CACHE:    1213562

L1D UNIQUE REGIONS ACCESSED: 0
L1D REGIONS CONFLICTS: 0
L1D Cross Page Prefetch Requests: 0
L1D Same Page Prefetch Requests: 2199280
L1D ROI Sum of L1D PQ occupancy: 17852984
L1D PREFETCHES PUSHED FROM L2C: 0
L1I TOTAL     ACCESS:    9398061  HIT:    9395283  MISS:       2778  HIT %:    99.9704  MISS %:  0.0295593   MPKI: 0.05556
L1I LOAD      ACCESS:    9398061  HIT:    9395283  MISS:       2778  HIT %:    99.9704  MISS %:  0.0295593   MPKI: 0.05556
L1I PREFETCH  REQUESTED:          0  ISSUED:          0  USEFUL:          0  USELESS:          0
L1I USEFUL LOAD PREFETCHES:          0 PREFETCH ISSUED TO LOWER LEVEL:          0  ACCURACY: -nan
L1I TIMELY PREFETCHES:          0 LATE PREFETCHES: 0 DROPPED PREFETCHES: 0
L1I PREFETCHES SAME FILL-ORIGIN LEVEL: 0 DIFFERENT FILL-ORIGIN LEVEL: 0
L1I AVERAGE MISS LATENCY: 235.239 cycles
L1I RQ	ACCESS:   12970804	FORWARD:          0	MERGED:    3571373	TO_CACHE:    9399431

BTB TOTAL     ACCESS:    2203354  HIT:    2197120  MISS:       6234  HIT %:    99.7171  MISS %:   0.282932   MPKI: 0.12468
BTB BRANCH_DIRECT_JUMP	ACCESS:       3916  HIT:       3875  MISS:         41
BTB BRANCH_INDIRECT	ACCESS:          0  HIT:          0  MISS:          0
BTB BRANCH_CONDITIONAL	ACCESS:    2181746  HIT:    2181274  MISS:        472
BTB BRANCH_DIRECT_CALL	ACCESS:       8847  HIT:       8610  MISS:        237
BTB BRANCH_INDIRECT_CALL	ACCESS:          0  HIT:          0  MISS:          0
BTB BRANCH_RETURN	ACCESS:       8845  HIT:       3361  MISS:       5484
BTB BRANCH_OTHER ACCESS:           0  HIT:          0  MISS:          0

L2C TOTAL     ACCESS:    2519416  HIT:    1182600  MISS:    1336816  HIT %:    46.9394  MISS %:    53.0606   MPKI: 26.7363
L2C LOAD      ACCESS:     530464  HIT:     415541  MISS:     114923  HIT %:    78.3354  MISS %:    21.6646   MPKI: 2.29846
L2C DATA LOAD MPKI: 2.2429
L2C INSTRUCTION LOAD MPKI: 0.05556
L2C RFO       ACCESS:     207923  HIT:     100404  MISS:     107519  HIT %:     48.289  MISS %:     51.711   MPKI: 2.15038
L2C PREFETCH  ACCESS:    1157256  HIT:      45656  MISS:    1111600  HIT %:    3.94519  MISS %:    96.0548   MPKI: 22.232
AGUS PREFETCH L1 MISS: 0
L2C DATA PREFETCH MPKI: 22.232
L2C INSTRUCTION PREFETCH MPKI: 0
L2C WRITEBACK ACCESS:     608386  HIT:     608234  MISS:        152  HIT %:     99.975  MISS %:  0.0249841   MPKI: 0.00304
L2C LOAD TRANSLATION ACCESS:      15387  HIT:      12765  MISS:       2622  HIT %:    82.9596  MISS %:    17.0404   MPKI: 0.05244
L2C PREFETCH  REQUESTED:          0  ISSUED:          0  USEFUL:     253315  USELESS:     860641
L2C USEFUL LOAD PREFETCHES:     253315 PREFETCH ISSUED TO LOWER LEVEL:    1112465  ACCURACY: 22.7706
L2C TIMELY PREFETCHES:     253315 LATE PREFETCHES: 865 DROPPED PREFETCHES: 0
L2C PREFETCHES SAME FILL-ORIGIN LEVEL: 95321 DIFFERENT FILL-ORIGIN LEVEL: 0
L2C AVERAGE MISS LATENCY: 278.453 cycles
L2C RQ	ACCESS:     753817	FORWARD:          0	MERGED:          0	TO_CACHE:     753787
L2C WQ	ACCESS:     608386	FORWARD:         30	MERGED:          0	TO_CACHE:     608386
L2C PQ	ACCESS:    1200074	FORWARD:          0	MERGED:          8	TO_CACHE:    1200066

L2C Instructions Evicting Data 2764
L2C Translations Evicting Data 2621
L2C Data Evicting Data 1325883
L2C Instructions Evicting Instructions 5
L2C Translations Evicting Instructions 1
L2C Data Evicting Instructions 2772
L2C Instructions Evicting Translations 9
L2C Translations Evicting Translations 0
L2C Data Evicting Translations 2609
L2C Dense regions hint from L2: 0
PSCL5 TOTAL     ACCESS:      15272  HIT:      15272  MISS:          0  HIT %:        100  MISS %:          0   MPKI: 0
PSCL5 LOAD TRANSLATION ACCESS:      15272  HIT:      15272  MISS:          0  HIT %:        100  MISS %:          0   MPKI: 0
PSCL5 PREFETCH  REQUESTED:          0  ISSUED:          0  USEFUL:          0  USELESS:          0
PSCL5 USEFUL LOAD PREFETCHES:          0 PREFETCH ISSUED TO LOWER LEVEL:          0  ACCURACY: -nan
PSCL5 TIMELY PREFETCHES:          0 LATE PREFETCHES: 0 DROPPED PREFETCHES: 0
PSCL5 PREFETCHES SAME FILL-ORIGIN LEVEL: 0 DIFFERENT FILL-ORIGIN LEVEL: 0

PSCL4 TOTAL     ACCESS:      15272  HIT:      15272  MISS:          0  HIT %:        100  MISS %:          0   MPKI: 0
PSCL4 LOAD TRANSLATION ACCESS:      15272  HIT:      15272  MISS:          0  HIT %:        100  MISS %:          0   MPKI: 0
PSCL4 PREFETCH  REQUESTED:          0  ISSUED:          0  USEFUL:          0  USELESS:          0
PSCL4 USEFUL LOAD PREFETCHES:          0 PREFETCH ISSUED TO LOWER LEVEL:          0  ACCURACY: -nan
PSCL4 TIMELY PREFETCHES:          0 LATE PREFETCHES: 0 DROPPED PREFETCHES: 0
PSCL4 PREFETCHES SAME FILL-ORIGIN LEVEL: 0 DIFFERENT FILL-ORIGIN LEVEL: 0

PSCL3 TOTAL     ACCESS:      15272  HIT:      15272  MISS:          0  HIT %:        100  MISS %:          0   MPKI: 0
PSCL3 LOAD TRANSLATION ACCESS:      15272  HIT:      15272  MISS:          0  HIT %:        100  MISS %:          0   MPKI: 0
PSCL3 PREFETCH  REQUESTED:          0  ISSUED:          0  USEFUL:          0  USELESS:          0
PSCL3 USEFUL LOAD PREFETCHES:          0 PREFETCH ISSUED TO LOWER LEVEL:          0  ACCURACY: -nan
PSCL3 TIMELY PREFETCHES:          0 LATE PREFETCHES: 0 DROPPED PREFETCHES: 0
PSCL3 PREFETCHES SAME FILL-ORIGIN LEVEL: 0 DIFFERENT FILL-ORIGIN LEVEL: 0

PSCL2 TOTAL     ACCESS:      15272  HIT:      15157  MISS:        115  HIT %:     99.247  MISS %:   0.753012   MPKI: 0.0023
PSCL2 LOAD TRANSLATION ACCESS:      15272  HIT:      15157  MISS:        115  HIT %:     99.247  MISS %:   0.753012   MPKI: 0.0023
PSCL2 PREFETCH  REQUESTED:          0  ISSUED:          0  USEFUL:          0  USELESS:          0
PSCL2 USEFUL LOAD PREFETCHES:          0 PREFETCH ISSUED TO LOWER LEVEL:          0  ACCURACY: -nan
PSCL2 TIMELY PREFETCHES:          0 LATE PREFETCHES: 0 DROPPED PREFETCHES: 0
PSCL2 PREFETCHES SAME FILL-ORIGIN LEVEL: 0 DIFFERENT FILL-ORIGIN LEVEL: 0

LLC TOTAL     ACCESS:    1772036  HIT:     278922  MISS:    1493114  HIT %:    15.7402  MISS %:    84.2598   MPKI: 29.8623
LLC LOAD      ACCESS:     114061  HIT:      15904  MISS:      98157  HIT %:    13.9434  MISS %:    86.0566   MPKI: 1.96314
LLC RFO       ACCESS:     107515  HIT:       1287  MISS:     106228  HIT %:    1.19704  MISS %:     98.803   MPKI: 2.12456
LLC PREFETCH  ACCESS:    1112465  HIT:     111629  MISS:    1000836  HIT %:    10.0344  MISS %:    89.9656   MPKI: 20.0167
AGUS PREFETCH L1 MISS: 0
LLC WRITEBACK ACCESS:     435373  HIT:     149523  MISS:     285850  HIT %:    34.3437  MISS %:    65.6563   MPKI: 5.717
LLC LOAD TRANSLATION ACCESS:       2622  HIT:        579  MISS:       2043  HIT %:    22.0824  MISS %:    77.9176   MPKI: 0.04086
LLC PREFETCH  REQUESTED:          0  ISSUED:          0  USEFUL:       5259  USELESS:     225025
LLC USEFUL LOAD PREFETCHES:       5259 PREFETCH ISSUED TO LOWER LEVEL:    1000836  ACCURACY: 0.525461
LLC TIMELY PREFETCHES:       5259 LATE PREFETCHES: 0 DROPPED PREFETCHES: 0
LLC PREFETCHES SAME FILL-ORIGIN LEVEL: 0 DIFFERENT FILL-ORIGIN LEVEL: 0
LLC AVERAGE MISS LATENCY: 222.398 cycles
LLC RQ	ACCESS:     224211	FORWARD:          0	MERGED:          0	TO_CACHE:     224210
LLC WQ	ACCESS:     435375	FORWARD:          1	MERGED:          0	TO_CACHE:     435375
LLC PQ	ACCESS:    1112465	FORWARD:          0	MERGED:          0	TO_CACHE:    1112465

LLC Dense regions hint to LLC: 0

RAW hits: 61882
Loads Generated: 16765722
Loads sent to L1D: 16703840
Stores Generated: 3489005
Stores sent to L1D: 3489006
Major fault: 0 Minor fault: 7750
Allocated PAGES: 7750
=== CPU 0 L1D Prefetcher Statistics ===
[MLOP] History of tracked zone:
IIIIIIIIIIIIIIIIIIIIIIIIIIIIIIIIIIIIIIIIIIIIIIIIIIIIIIIIIIIIIIII
A11111III1IIIIIIIIIIIIIIIIIIIIIIIIIIIIIIIIIIIIIIIIIIIIIIIIIIIIII
AA11111II11IIIIIIIIIIIIIIIIIIIIIIIIIIIIIIIIIIIIIIIIIIIIIIIIIIIII
AAA11111I111IIIIIIIIIIIIIIIIIIIIIIIIIIIIIIIIIIIIIIIIIIIIIIIIIIII
AAAA111111111IIIIIIIIIIIIIIIIIIIIIIIIIIIIIIIIIIIIIIIIIIIIIIIIIII
AAAAA111111111IIIIIIIIIIIIIIIIIIIIIIIIIIIIIIIIIIIIIIIIIIIIIIIIII
AAAAAA111111111IIIIIIIIIIIIIIIIIIIIIIIIIIIIIIIIIIIIIIIIIIIIIIIII
AAAAAAA111111111IIIIIIIIIIIIIIIIIIIIIIIIIIIIIIIIIIIIIIIIIIIIIIII
AAAAAAAA111111111IIIIIIIIIIIIIIIIIIIIIIIIIIIIIIIIIIIIIIIIIIIIIII
AAAAAAAAA111111111IIIIIIIIIIIIIIIIIIIIIIIIIIIIIIIIIIIIIIIIIIIIII
AAAAAAAAAA111111111IIIIIIIIIIIIIIIIIIIIIIIIIIIIIIIIIIIIIIIIIIIII
AAAAAAAAAAA111111111IIIIIIIIIIIIIIIIIIIIIIIIIIIIIIIIIIIIIIIIIIII
AAAAAAAAAAAA111111111IIIIIIIIIIIIIIIIIIIIIIIIIIIIIIIIIIIIIIIIIII
AAAAAAAAAAAAA111111111IIIIIIIIIIIIIIIIIIIIIIIIIIIIIIIIIIIIIIIIII
AAAAAAAAAAAAAA111111111IIIIIIIIIIIIIIIIIIIIIIIIIIIIIIIIIIIIIIIII
AAAAAAAAAAAAAAA111111111IIIIIIIIIIIIIIIIIIIIIIIIIIIIIIIIIIIIIIII
AAAAAAAAAAAAAAAA111111111IIIIIIIIIIIIIIIIIIIIIIIIIIIIIIIIIIIIIII
AAAAAAAAAAAAAAAAA111111111IIIIIIIIIIIIIIIIIIIIIIIIIIIIIIIIIIIIII
AAAAAAAAAAAAAAAAAA111111111IIIIIIIIIIIIIIIIIIIIIIIIIIIIIIIIIIIII
AAAAAAAAAAAAAAAAAAA111111111IIIIIIIIIIIIIIIIIIIIIIIIIIIIIIIIIIII
AAAAAAAAAAAAAAAAAAAA111111111IIIIIIIIIIIIIIIIIIIIIIIIIIIIIIIIIII
AAAAAAAAAAAAAAAAAAAAA111111111IIIIIIIIIIIIIIIIIIIIIIIIIIIIIIIIII
AAAAAAAAAAAAAAAAAAAAAA111111111IIIIIIIIIIIIIIIIIIIIIIIIIIIIIIIII
AAAAAAAAAAAAAAAAAAAAAAA111111111IIIIIIIIIIIIIIIIIIIIIIIIIIIIIIII
AAAAAAAAAAAAAAAAAAAAAAAA111111111IIIIIIIIIIIIIIIIIIIIIIIIIIIIIII
AAAAAAAAAAAAAAAAAAAAAAAAA111111111IIIIIIIIIIIIIIIIIIIIIIIIIIIIII
AAAAAAAAAAAAAAAAAAAAAAAAAA111111111IIIIIIIIIIIIIIIIIIIIIIIIIIIII
AAAAAAAAAAAAAAAAAAAAAAAAAAA111111111IIIIIIIIIIIIIIIIIIIIIIIIIIII
AAAAAAAAAAAAAAAAAAAAAAAAAAAA111111111IIIIIIIIIIIIIIIIIIIIIIIIIII
AAAAAAAAAAAAAAAAAAAAAAAAAAAAA111111111IIIIIIIIIIIIIIIIIIIIIIIIII
AAAAAAAAAAAAAAAAAAAAAAAAAAAAAA111111111IIIIIIIIIIIIIIIIIIIIIIIII
AAAAAAAAAAAAAAAAAAAAAAAAAAAAAAA111111111IIIIIIIIIIIIIIIIIIIIIIII
AAAAAAAAAAAAAAAAAAAAAAAAAAAAAAAA111111111IIIIIIIIIIIIIIIIIIIIIII
AAAAAAAAAAAAAAAAAAAAAAAAAAAAAAAAA111111111IIIIIIIIIIIIIIIIIIIIII
AAAAAAAAAAAAAAAAAAAAAAAAAAAAAAAAAA111111111IIIIIIIIIIIIIIIIIIIII
AAAAAAAAAAAAAAAAAAAAAAAAAAAAAAAAAAA111111111IIIIIIIIIIIIIIIIIIII
AAAAAAAAAAAAAAAAAAAAAAAAAAAAAAAAAAAA111111111IIIIIIIIIIIIIIIIIII
AAAAAAAAAAAAAAAAAAAAAAAAAAAAAAAAAAAAA111111111IIIIIIIIIIIIIIIIII
AAAAAAAAAAAAAAAAAAAAAAAAAAAAAAAAAAAAAA111111111IIIIIIIIIIIIIIIII
AAAAAAAAAAAAAAAAAAAAAAAAAAAAAAAAAAAAAAA111111111IIIIIIIIIIIIIIII
AAAAAAAAAAAAAAAAAAAAAAAAAAAAAAAAAAAAAAAA111111111IIIIIIIIIIIIIII
AAAAAAAAAAAAAAAAAAAAAAAAAAAAAAAAAAAAAAAAA111111111IIIIIIIIIIIIII
AAAAAAAAAAAAAAAAAAAAAAAAAAAAAAAAAAAAAAAAAA111111111IIIIIIIIIIIII
AAAAAAAAAAAAAAAAAAAAAAAAAAAAAAAAAAAAAAAAAAA111111111IIIIIIIIIIII
AAAAAAAAAAAAAAAAAAAAAAAAAAAAAAAAAAAAAAAAAAAA111111111IIIIIIIIIII
AAAAAAAAAAAAAAAAAAAAAAAAAAAAAAAAAAAAAAAAAAAAA111111111IIIIIIIIII
AAAAAAAAAAAAAAAAAAAAAAAAAAAAAAAAAAAAAAAAAAAAAA111111111IIIIIIIII
AAAAAAAAAAAAAAAAAAAAAAAAAAAAAAAAAAAAAAAAAAAAAAA111111111IIIIIIII
AAAAAAAAAAAAAAAAAAAAAAAAAAAAAAAAAAAAAAAAAAAAAAAA111111111IIIIIII
AAAAAAAAAAAAAAAAAAAAAAAAAAAAAAAAAAAAAAAAAAAAAAAAA111111111IIIIII
AAAAAAAAAAAAAAAAAAAAAAAAAAAAAAAAAAAAAAAAAAAAAAAAAA111111111IIIII
AAAAAAAAAAAAAAAAAAAAAAAAAAAAAAAAAAAAAAAAAAAAAAAAAAA111111111IIII
AAAAAAAAAAAAAAAAAAAAAAAAAAAAAAAAAAAAAAAAAAAAAAAAAAAA111111111III
AAAAAAAAAAAAAAAAAAAAAAAAAAAAAAAAAAAAAAAAAAAAAAAAAAAAA111111111II
AAAAAAAAAAAAAAAAAAAAAAAAAAAAAAAAAAAAAAAAAAAAAAAAAAAAAA111111111I
AAAAAAAAAAAAAAAAAAAAAAAAAAAAAAAAAAAAAAAAAAAAAAAAAAAAAAA111111111
AAAAAAAAAAAAAAAAAAAAAAAAAAAAAAAAAAAAAAAAAAAAAAAAAAAAAAAA11111111
AAAAAAAAAAAAAAAAAAAAAAAAAAAAAAAAAAAAAAAAAAAAAAAAAAAAAAAAA1111111
AAAAAAAAAAAAAAAAAAAAAAAAAAAAAAAAAAAAAAAAAAAAAAAAAAAAAAAAAA111111
AAAAAAAAAAAAAAAAAAAAAAAAAAAAAAAAAAAAAAAAAAAAAAAAAAAAAAAAAAA11111
AAAAAAAAAAAAAAAAAAAAAAAAAAAAAAAAAAAAAAAAAAAAAAAAAAAAAAAAAAAA1111
AAAAAAAAAAAAAAAAAAAAAAAAAAAAAAAAAAAAAAAAAAAAAAAAAAAAAAAAAAAAA111
AAAAAAAAAAAAAAAAAAAAAAAAAAAAAAAAAAAAAAAAAAAAAAAAAAAAAAAAAAAAAA11
AAAAAAAAAAAAAAAAAAAAAAAAAAAAAAAAAAAAAAAAAAAAAAAAAAAAAAAAAAAAAAA1
AAAAAAAAAAAAAAAAAAAAAAAAAAAAAAAAAAAAAAAAAAAAAAAAAAAAAAAAAAAAAAAA
IIIIAIII11IIII1IIIIIIIII11IIIIIIIIIIIIIIIIIIIIIIIIIIIIIIIIIIIIII
IIIIAIII11AIII11IIII1III11IIII11IIIIIIIIIIIIIIIIIIIIIIIIIIIIIIII
IIIIAIII11AIII1AIII11III11IIII11III11IIIIIIIIIIIIIIIIIIIIIIIIIII
IIIIAIII11AIII1AIII1AIII11IIII11III11III11IIIIIIIIIIIIIIIIIIIIII
IIIIAIII11AIII1AIII1AIII1AIII111III11III11III11IIIIIIIIIIIIIIIII
IIIIAIII11AIII1AIII1AIII1AIII11AIII11III11III11IIII11IIIIIIIIIII
IIIIAIII11AIII1AIII1AIII1AIII11AIII1AIII11III11IIII11III11IIIIII
IIIIAIII11AIII1AIII1AIII1AIII11AIII1AIII1AIII11IIII11III11III11I
IIIIAIII11AIII1AIII1AIII1AIII11AIII1AIII1AIII1AIII111III11III11I
IIIIAIII11AIII1AIII1AIII1AIII11AIII1AIII1AIII1AIII11AIII11III11I
IIIIAIII11AIII1AIII1AIII1AIII11AIII1AIII1AIII1AIII11AIII1AIII11I
IIIIAIII11AIII1AIII1AIII1AIII11AIII1AIII1AIII1AIII11AIII1AIII1AI
III1AIII11AIII1AIII1AIII1AIII11AIII1AIII1AIII1AIII11AIII1AIII1AI
III1AIII1AAIII1AIII1AIII1AIII11AIII1AIII1AIII1AIII11AIII1AIII1AI
III1AIII1AAII1AAIII1AIII1AIII11AIII1AIII1AIII1AIII11AIII1AIII1AI
III1AIII1AAII1AAII1AAIII1AIII11AIII1AIII1AIII1AIII11AIII1AIII1AI
III1AIII1AAII1AAII1AAIII1AIII1AAIII1AIII1AIII1AIII11AIII1AIII1AI
III1AIII1AAII1AAII1AAIII1AIII1AAII1AAIII1AIII1AIII11AIII1AIII1AI
III1AIII1AAII1AAII1AAIII1AIII1AAII1AAII1AAIII1AIII11AIII1AIII1AI
III1AIII1AAII1AAII1AAIII1AIII1AAII1AAII1AAIII1AIII1AAIII1AIII1AI
III1AIII1AAII1AAII1AAIII1AIII1AAII1AAII1AAIII1AIII1AAII1AAIII1AI
III1AIII1AAII1AAII1AAIII1AIII1AAII1AAII1AAIII1AIII1AAII1AAII1AAI
A1IIIIIIIIIIIII1IIIIIIIIIIIIIIIIIIIIIIIIIIIIIIIIIIIIIIIIIIIIIIII
AA1IIIIIIIIIIII11IIIIIIIIIIIIIIIIIIIIIIIIIIIIIIIIIIIIIIIIIIIIIII
AAA1IIIIIIIIIII111IIIIIIIIIIIIIIIIIIIIIIIIIIIIIIIIIIIIIIIIIIIIII
AAAA1IIIIIIIIII1111IIIIIIIIIIIIIIIIIIIIIIIIIIIIIIIIIIIIIIIIIIIII
AAAAA1IIIIIIIII11111IIIIIIIIIIIIIIIIIIIIIIIIIIIIIIIIIIIIIIIIIIII
AAAAAA1IIIIIIII111111IIIIIIIIIIIIIIIIIIIIIIIIIIIIIIIIIIIIIIIIIII
AAAAAAA1IIIIIII1111111IIIIIIIIIIIIIIIIIIIIIIIIIIIIIIIIIIIIIIIIII
AAAAAAAA1IIIIII11111111IIIIIIIIIIIIIIIIIIIIIIIIIIIIIIIIIIIIIIIII
AAAAAAAAA1IIIII111111111IIIIIIIIIIIIIIIIIIIIIIIIIIIIIIIIIIIIIIII
AAAAAAAAAA1IIII1111111111IIIIIIIIIIIIIIIIIIIIIIIIIIIIIIIIIIIIIII
AAAAAAAAAAA1III11111111111IIIIIIIIIIIIIIIIIIIIIIIIIIIIIIIIIIIIII
AAAAAAAAAAAA1II111111111111IIIIIIIIIIIIIIIIIIIIIIIIIIIIIIIIIIIII
AAAAAAAAAAAAA1I1111111111111IIIIIIIIIIIIIIIIIIIIIIIIIIIIIIIIIIII
AAAAAAAAAAAAAA111111111111111IIIIIIIIIIIIIIIIIIIIIIIIIIIIIIIIIII
AAAAAAAAAAAAAAA111111111111111IIIIIIIIIIIIIIIIIIIIIIIIIIIIIIIIII
AAAAAAAAAAAAAAAA111111111111111IIIIIIIIIIIIIIIIIIIIIIIIIIIIIIIII
AAAAAAAAAAAAAAAAA111111111111111IIIIIIIIIIIIIIIIIIIIIIIIIIIIIIII
AAAAAAAAAAAAAAAAAA111111111111111IIIIIIIIIIIIIIIIIIIIIIIIIIIIIII
AAAAAAAAAAAAAAAAAAA111111111111111IIIIIIIIIIIIIIIIIIIIIIIIIIIIII
AAAAAAAAAAAAAAAAAAAA111111111111111IIIIIIIIIIIIIIIIIIIIIIIIIIIII
AAAAAAAAAAAAAAAAAAAAA111111111111111IIIIIIIIIIIIIIIIIIIIIIIIIIII
AAAAAAAAAAAAAAAAAAAAAA111111111111111IIIIIIIIIIIIIIIIIIIIIIIIIII
AAAAAAAAAAAAAAAAAAAAAAA111111111111111IIIIIIIIIIIIIIIIIIIIIIIIII
AAAAAAAAAAAAAAAAAAAAAAAA111111111111111IIIIIIIIIIIIIIIIIIIIIIIII
AAAAAAAAAAAAAAAAAAAAAAAAA111111111111111IIIIIIIIIIIIIIIIIIIIIIII
AAAAAAAAAAAAAAAAAAAAAAAAAA111111111111111IIIIIIIIIIIIIIIIIIIIIII
AAAAAAAAAAAAAAAAAAAAAAAAAAA111111111111111IIIIIIIIIIIIIIIIIIIIII
AAAAAAAAAAAAAAAAAAAAAAAAAAAA111111111111111IIIIIIIIIIIIIIIIIIIII
AAAAAAAAAAAAAAAAAAAAAAAAAAAAA111111111111111IIIIIIIIIIIIIIIIIIII
AAAAAAAAAAAAAAAAAAAAAAAAAAAAAA111111111111111IIIIIIIIIIIIIIIIIII
AAAAAAAAAAAAAAAAAAAAAAAAAAAAAAA111111111111111IIIIIIIIIIIIIIIIII
AAAAAAAAAAAAAAAAAAAAAAAAAAAAAAAA111111111111111IIIIIIIIIIIIIIIII
AAAAAAAAAAAAAAAAAAAAAAAAAAAAAAAAA111111111111111IIIIIIIIIIIIIIII
AAAAAAAAAAAAAAAAAAAAAAAAAAAAAAAAAA111111111111111IIIIIIIIIIIIIII
AAAAAAAAAAAAAAAAAAAAAAAAAAAAAAAAAAA111111111111111IIIIIIIIIIIIII
AAAAAAAAAAAAAAAAAAAAAAAAAAAAAAAAAAAA111111111111111IIIIIIIIIIIII
AAAAAAAAAAAAAAAAAAAAAAAAAAAAAAAAAAAAA111111111111111IIIIIIIIIIII
AAAAAAAAAAAAAAAAAAAAAAAAAAAAAAAAAAAAAA111111111111111IIIIIIIIIII
AAAAAAAAAAAAAAAAAAAAAAAAAAAAAAAAAAAAAAA111111111111111IIIIIIIIII
AAAAAAAAAAAAAAAAAAAAAAAAAAAAAAAAAAAAAAAA111111111111111IIIIIIIII
AAAAAAAAAAAAAAAAAAAAAAAAAAAAAAAAAAAAAAAAA111111111111111IIIIIIII
AAAAAAAAAAAAAAAAAAAAAAAAAAAAAAAAAAAAAAAAAA111111111111111IIIIIII
AAAAAAAAAAAAAAAAAAAAAAAAAAAAAAAAAAAAAAAAAAA111111111111111IIIIII
AAAAAAAAAAAAAAAAAAAAAAAAAAAAAAAAAAAAAAAAAAAA111111111111111IIIII
AAAAAAAAAAAAAAAAAAAAAAAAAAAAAAAAAAAAAAAAAAAAA111111111111111IIII
AAAAAAAAAAAAAAAAAAAAAAAAAAAAAAAAAAAAAAAAAAAAAA111111111111111III
AAAAAAAAAAAAAAAAAAAAAAAAAAAAAAAAAAAAAAAAAAAAAAA111111111111111II
AAAAAAAAAAAAAAAAAAAAAAAAAAAAAAAAAAAAAAAAAAAAAAAA111111111111111I
AAAAAAAAAAAAAAAAAAAAAAAAAAAAAAAAAAAAAAAAAAAAAAAAA111111111111111
AAAAAAAAAAAAAAAAAAAAAAAAAAAAAAAAAAAAAAAAAAAAAAAAAA11111111111111
AAAAAAAAAAAAAAAAAAAAAAAAAAAAAAAAAAAAAAAAAAAAAAAAAAA1111111111111
AAAAAAAAAAAAAAAAAAAAAAAAAAAAAAAAAAAAAAAAAAAAAAAAAAAA111111111111
AAAAAAAAAAAAAAAAAAAAAAAAAAAAAAAAAAAAAAAAAAAAAAAAAAAAA11111111111
AAAAAAAAAAAAAAAAAAAAAAAAAAAAAAAAAAAAAAAAAAAAAAAAAAAAAA1111111111
AAAAAAAAAAAAAAAAAAAAAAAAAAAAAAAAAAAAAAAAAAAAAAAAAAAAAAA111111111
AAAAAAAAAAAAAAAAAAAAAAAAAAAAAAAAAAAAAAAAAAAAAAAAAAAAAAAA11111111
AAAAAAAAAAAAAAAAAAAAAAAAAAAAAAAAAAAAAAAAAAAAAAAAAAAAAAAAA1111111
AAAAAAAAAAAAAAAAAAAAAAAAAAAAAAAAAAAAAAAAAAAAAAAAAAAAAAAAAA111111
AAAAAAAAAAAAAAAAAAAAAAAAAAAAAAAAAAAAAAAAAAAAAAAAAAAAAAAAAAA11111
AAAAAAAAAAAAAAAAAAAAAAAAAAAAAAAAAAAAAAAAAAAAAAAAAAAAAAAAAAAA1111
AAAAAAAAAAAAAAAAAAAAAAAAAAAAAAAAAAAAAAAAAAAAAAAAAAAAAAAAAAAAA111
AAAAAAAAAAAAAAAAAAAAAAAAAAAAAAAAAAAAAAAAAAAAAAAAAAAAAAAAAAAAAA11
AAAAAAAAAAAAAAAAAAAAAAAAAAAAAAAAAAAAAAAAAAAAAAAAAAAAAAAAAAAAAAA1
AAAAAAAAAAAAAAAAAAAAAAAAAAAAAAAAAAAAAAAAAAAAAAAAAAAAAAAAAAAAAAAA
AIIIIIIIIIIIIIIIIIIIIIIIIIIIIIIIIIIIIIIIIIIIIIIIIIIIIIIIIIIIIIII
A1111IIIIIIIIIIIII111IIIIIIIIIIIIIIIIIIIIIIIIIIIIIIIIIIIIIIIIIII
AA111IIIIIIIIIIIII111IIIIIIIIIIIIIIIIIIIIIIIIIIIIIIIIIIIIIIIIIII
AA1111IIIIIIIIIIII1111IIIIIIIIIIIIIIIIIIIIIIIIIIIIIIIIIIIIIIIIII
AAA111IIIIIIIIIIII1111IIIIIIIIIIIIIIIIIIIIIIIIIIIIIIIIIIIIIIIIII
AAA1111IIIIIIIIIII11111IIIIIIIIIIIIIIIIIIIIIIIIIIIIIIIIIIIIIIIII
AAAA111IIIIIIIIIII11111IIIIIIIIIIIIIIIIIIIIIIIIIIIIIIIIIIIIIIIII
AAAA1111IIIIIIIIII111111IIIIIIIIIIIIIIIIIIIIIIIIIIIIIIIIIIIIIIII
AAAAA111IIIIIIIIII111111IIIIIIIIIIIIIIIIIIIIIIIIIIIIIIIIIIIIIIII
AAAAA1111IIIIIIIII1111111IIIIIIIIIIIIIIIIIIIIIIIIIIIIIIIIIIIIIII
AAAAAA111IIIIIIIII1111111IIIIIIIIIIIIIIIIIIIIIIIIIIIIIIIIIIIIIII
AAAAAAA11IIIIIIIII1111111IIIIIIIIIIIIIIIIIIIIIIIIIIIIIIIIIIIIIII
AAAAAAAA1IIIIIIIII1111111IIIIIIIIIIIIIIIIIIIIIIIIIIIIIIIIIIIIIII
AAAAAAAA1111IIIIII1111111111IIIIIIIIIIIIIIIIIIIIIIIIIIIIIIIIIIII
AAAAAAAAA111IIIIII1111111111IIIIIIIIIIIIIIIIIIIIIIIIIIIIIIIIIIII
AAAAAAAAA1111IIIII11111111111IIIIIIIIIIIIIIIIIIIIIIIIIIIIIIIIIII
AAAAAAAAAA111IIIII11111111111IIIIIIIIIIIIIIIIIIIIIIIIIIIIIIIIIII
AAAAAAAAAAA11IIIII11111111111IIIIIIIIIIIIIIIIIIIIIIIIIIIIIIIIIII
AAAAAAAAAAA111IIII11111111111IIIIIIIIIIIIIIIIIIIIIIIIIIIIIIIIIII
AAAAAAAAAAAA11IIII11111111111IIIIIIIIIIIIIIIIIIIIIIIIIIIIIIIIIII
AAAAAAAAAAAAA1IIII11111111111IIIIIIIIIIIIIIIIIIIIIIIIIIIIIIIIIII
AAAAAAAAAAAAA1111I11111111111IIIIIIIIIIIIIIIIIIIIIIIIIIIIIIIIIII
AAAAAAAAAAAAAA111I11111111111IIIIIIIIIIIIIIIIIIIIIIIIIIIIIIIIIII
AAAAAAAAAAAAAAA11I11111111111IIIIIIIIIIIIIIIIIIIIIIIIIIIIIIIIIII
AAAAAAAAAAAAAAA11111111111111III111IIIIIIIIIIIIIIIIIIIIIIIIIIIII
AAAAAAAAAAAAAAAA1111111111111III111IIIIIIIIIIIIIIIIIIIIIIIIIIIII
AAAAAAAAAAAAAAAA1111111111111III1111IIIIIIIIIIIIIIIIIIIIIIIIIIII
AAAAAAAAAAAAAAAAA111111111111III1111IIIIIIIIIIIIIIIIIIIIIIIIIIII
AAAAAAAAAAAAAAAAA111111111111III11111IIIIIIIIIIIIIIIIIIIIIIIIIII
AAAAAAAAAAAAAAAAAA11111111111III11111IIIIIIIIIIIIIIIIIIIIIIIIIII
AAAAAAAAAAAAAAAAAA11111111111III111111IIIIIIIIIIIIIIIIIIIIIIIIII
AAAAAAAAAAAAAAAAAAA1111111111III1111111IIIIIIIIIIIIIIIIIIIIIIIII
AAAAAAAAAAAAAAAAAAAA111111111III11111111IIIIIIIIIIIIIIIIIIIIIIII
AAAAAAAAAAAAAAAAAAAAA11111111III111111111IIIIIIIIIIIIIIIIIIIIIII
AAAAAAAAAAAAAAAAAAAAAA1111111III1111111111IIIIIIIIIIIIIIIIIIIIII
AAAAAAAAAAAAAAAAAAAAAAA111111III1111111111IIIIIIIIIIIIIIIIIIIIII
AAAAAAAAAAAAAAAAAAAAAAA111111III11111111111IIIIIIIIIIIIIIIIIIIII
AAAAAAAAAAAAAAAAAAAAAAAA11111III11111111111IIIIIIIIIIIIIIIIIIIII
AAAAAAAAAAAAAAAAAAAAAAAA11111III111111111111IIIIIIIIIIIIIIIIIIII
AAAAAAAAAAAAAAAAAAAAAAAAA1111III1111111111111IIIIIIIIIIIIIIIIIII
AAAAAAAAAAAAAAAAAAAAAAAAAA111III1111111111111IIIIIIIIIIIIIIIIIII
AAAAAAAAAAAAAAAAAAAAAAAAAAA11III1111111111111IIIIIIIIIIIIIIIIIII
AAAAAAAAAAAAAAAAAAAAAAAAAAA1111I11111111111111IIIIIIIIIIIIIIIIII
AAAAAAAAAAAAAAAAAAAAAAAAAAA1111I111111111111111IIIIIIIIIIIIIIIII
AAAAAAAAAAAAAAAAAAAAAAAAAAAA111I111111111111111IIIIIIIIIIIIIIIII
AAAAAAAAAAAAAAAAAAAAAAAAAAAA11111111111111111111IIIIIIIIIIIIIIII
AAAAAAAAAAAAAAAAAAAAAAAAAAAAA1111111111111111111IIIIIIIIIIIIIIII
AAAAAAAAAAAAAAAAAAAAAAAAAAAAA11111111111111111111IIIIIIIIIIIIIII
AAAAAAAAAAAAAAAAAAAAAAAAAAAAAA1111111111111111111IIIIIIIIIIIIIII
AAAAAAAAAAAAAAAAAAAAAAAAAAAAAA11111111111111111111IIIIIIIIIIIIII
AAAAAAAAAAAAAAAAAAAAAAAAAAAAAAA1111111111111111111IIIIIIIIIIIIII
AAAAAAAAAAAAAAAAAAAAAAAAAAAAAAAA111111111111111111IIIIIIIIIIIIII
AAAAAAAAAAAAAAAAAAAAAAAAAAAAAAAA11111111111111111111IIIIIIIIIIII
AAAAAAAAAAAAAAAAAAAAAAAAAAAAAAAAA1111111111111111111IIIIIIIIIIII
AAAAAAAAAAAAAAAAAAAAAAAAAAAAAAAAA11111111111111111111IIIIIIIIIII
AAAAAAAAAAAAAAAAAAAAAAAAAAAAAAAAAA11111111111111111111IIIIIIIIII
AAAAAAAAAAAAAAAAAAAAAAAAAAAAAAAAAAA1111111111111111111IIIIIIIIII
AAAAAAAAAAAAAAAAAAAAAAAAAAAAAAAAAAA11111111111111111111IIIIIIIII
AAAAAAAAAAAAAAAAAAAAAAAAAAAAAAAAAAAA1111111111111111111IIIIIIIII
AAAAAAAAAAAAAAAAAAAAAAAAAAAAAAAAAAAA11111111111111111111IIIIIIII
AAAAAAAAAAAAAAAAAAAAAAAAAAAAAAAAAAAAA11111111111111111111IIIIIII
AAAAAAAAAAAAAAAAAAAAAAAAAAAAAAAAAAAAAA11111111111111111111IIIIII
AAAAAAAAAAAAAAAAAAAAAAAAAAAAAAAAAAAAAAA11111111111111111111IIIII
AAAAAAAAAAAAAAAAAAAAAAAAAAAAAAAAAAAAAAAA1111111111111111111IIIII
AAAAAAAAAAAAAAAAAAAAAAAAAAAAAAAAAAAAAAAA11111111111111111111IIII
AAAAAAAAAAAAAAAAAAAAAAAAAAAAAAAAAAAAAAAAA1111111111111111111IIII
AAAAAAAAAAAAAAAAAAAAAAAAAAAAAAAAAAAAAAAAA11111111111111111111III
AAAAAAAAAAAAAAAAAAAAAAAAAAAAAAAAAAAAAAAAAA11111111111111111111II
AAAAAAAAAAAAAAAAAAAAAAAAAAAAAAAAAAAAAAAAAAA11111111111111111111I
AAAAAAAAAAAAAAAAAAAAAAAAAAAAAAAAAAAAAAAAAAAA11111111111111111111
AAAAAAAAAAAAAAAAAAAAAAAAAAAAAAAAAAAAAAAAAAAAA1111111111111111111
AAAAAAAAAAAAAAAAAAAAAAAAAAAAAAAAAAAAAAAAAAAAAA111111111111111111
AAAAAAAAAAAAAAAAAAAAAAAAAAAAAAAAAAAAAAAAAAAAAAA11111111111111111
AAAAAAAAAAAAAAAAAAAAAAAAAAAAAAAAAAAAAAAAAAAAAAAA1111111111111111
AAAAAAAAAAAAAAAAAAAAAAAAAAAAAAAAAAAAAAAAAAAAAAAAA111111111111111
AAAAAAAAAAAAAAAAAAAAAAAAAAAAAAAAAAAAAAAAAAAAAAAAAA11111111111111
AAAAAAAAAAAAAAAAAAAAAAAAAAAAAAAAAAAAAAAAAAAAAAAAAAA1111111111111
AAAAAAAAAAAAAAAAAAAAAAAAAAAAAAAAAAAAAAAAAAAAAAAAAAAA111111111111
AAAAAAAAAAAAAAAAAAAAAAAAAAAAAAAAAAAAAAAAAAAAAAAAAAAAA11111111111
AAAAAAAAAAAAAAAAAAAAAAAAAAAAAAAAAAAAAAAAAAAAAAAAAAAAAA1111111111
AAAAAAAAAAAAAAAAAAAAAAAAAAAAAAAAAAAAAAAAAAAAAAAAAAAAAAA111111111
AAAAAAAAAAAAAAAAAAAAAAAAAAAAAAAAAAAAAAAAAAAAAAAAAAAAAAAA11111111
AAAAAAAAAAAAAAAAAAAAAAAAAAAAAAAAAAAAAAAAAAAAAAAAAAAAAAAAA1111111
AAAAAAAAAAAAAAAAAAAAAAAAAAAAAAAAAAAAAAAAAAAAAAAAAAAAAAAAAA111111
AAAAAAAAAAAAAAAAAAAAAAAAAAAAAAAAAAAAAAAAAAAAAAAAAAAAAAAAAAA11111
AAAAAAAAAAAAAAAAAAAAAAAAAAAAAAAAAAAAAAAAAAAAAAAAAAAAAAAAAAAA1111
AAAAAAAAAAAAAAAAAAAAAAAAAAAAAAAAAAAAAAAAAAAAAAAAAAAAAAAAAAAAA111
AAAAAAAAAAAAAAAAAAAAAAAAAAAAAAAAAAAAAAAAAAAAAAAAAAAAAAAAAAAAAA11
AAAAAAAAAAAAAAAAAAAAAAAAAAAAAAAAAAAAAAAAAAAAAAAAAAAAAAAAAAAAAAA1
AAAAAAAAAAAAAAAAAAAAAAAAAAAAAAAAAAAAAAAAAAAAAAAAAAAAAAAAAAAAAAAA
IIIIAIIIIIIIIIIIIIIIIIIII1IIIIIIIIIIIIIIIIIIII2IIIIIIIIIIIIIIIII
IIIIAIIIIIAIIIIIIIIIIIIII1IIIIIIIIIIIIIIIIIIII2IIIIIIIIIIIIIIIII
IIIIAIIIIIAIIIIAIIIIIIIII1IIIIIIIIIIIIIIIIIIII2IIIIIIIIIIIIIIIII
IIIIAIIIIIAIIIIAIIIIAIIII1IIIIIIIIIIIIIIIIIIII2IIIIIIIIIIIIIIIII
IIIIAIIIIIAIIIIAIIIIAIIIIAIIIIIIIIIIIIIIIIIIII1IIIIIIIIIIIIIIIII
IIIIAIIIIIAIIIIAIIIIAIIIIAIIIIIAIIIIIIIIIIIIII1IIIII1IIIIIIIIIII
IIIIAIIIIIAIIIIAIIIIAIIIIAIIIIIAIIIIIIIIIAIIII1IIIII1IIIIIIIII1I
IIIIAIIIIIAIIIIAIIIIAIIIIAIIIIIAIIIIAIIIIAIIII1IIIII1IIII1IIII1I
IIIIAIIIIIAIIIIAIIIIAIIIIAIIIIIAIIIIAIIIIAIIII1IIIIIAIIII1IIII1I
IIIIAIIIIIAIIIIAIIIIAIIIIAIIIIIAIIIIAIIIIAIIIIAIIIIIAIIII1IIII1I
IIIIAIIIIIAIIIIAIIIIAIIIIAIIIIIAIIIIAIIIIAIIIIAIIIIIAIIIIAIIII1I
IIIIAIIIIIAIIIIAIIIIAIIIIAIIIIIAIIIIAIIIIAIIIIAIIIIIAIIIIAIIIIAI
III1AIIIIIAIIIIAIIIIAIII1AIIIIIAIIIIAIIIIAIIIIAIIIIIAIIIIAIIIIAI
III1AIII1AAIIIIAIIIIAIII1AIII1IAIIIIAIIIIAIIIIAIIIIIAIIIIAIIIIAI
III1AIII1AAIIIIAII1AAIII1AIII1IAIIIIAIIIIAIIIIAIIIIIAIIIIAIIIIAI
III1AIII1AAII1AAII1AAIII1AIII1IAIIIIAIIIIAIIIIAIIIIIAIIIIAIIIIAI
III1AIII1AAII1AAII1AAIII1AIII1AAIIIIAIIIIAIIIIAIIIIIAIIIIAIIIIAI
III1AIII1AAII1AAII1AAIII1AIII1AAIIIAAIIIIAIIIIAIIIIIAIIIIAIIIIAI
III1AIII1AAII1AAII1AAIII1AIII1AAIIIAAIIIAAIIIIAIIIIIAIIIIAIIIIAI
III1AIII1AAII1AAII1AAIII1AIII1AAIIIAAIIIAAIIIIAIIIIIAIIIIAIIIAAI
III1AIII1AAII1AAII1AAIII1AIII1AAIIIAAIIIAAIIIIAIIIIAAIIIIAIIIAAI
III1AIII1AAII1AAII1AAIII1AIII1AAIIIAAIIIAAIIIIAIIIIAAIIIAAIIIAAI
A1IIIIIIIIIIIIIIIIIIIIIIIIIIIIIIIIIIIIIIIIIIIIIIIIIIIIIIIIIIIIII
A1111IIIIIIIIIIIII1IIIIIIIIIIIIIIIIIIIIIIIIIIIIIIIIIIIIIIIIIIIII
AA111IIIIIIIIIIIII1IIIIIIIIIIIIIIIIIIIIIIIIIIIIIIIIIIIIIIIIIIIII
AA1111IIIIIIIIIIII11IIIIIIIIIIIIIIIIIIIIIIIIIIIIIIIIIIIIIIIIIIII
AAA111IIIIIIIIIIII11IIIIIIIIIIIIIIIIIIIIIIIIIIIIIIIIIIIIIIIIIIII
AAA1111IIIIIIIIIII111IIIIIIIIIIIIIIIIIIIIIIIIIIIIIIIIIIIIIIIIIII
AAAA1111IIIIIIIIII1111IIIIIIIIIIIIIIIIIIIIIIIIIIIIIIIIIIIIIIIIII
AAAAA1111IIIIIIIII11111IIIIIIIIIIIIIIIIIIIIIIIIIIIIIIIIIIIIIIIII
AAAAAA1111IIIIIIII111111IIIIIIIIIIIIIIIIIIIIIIIIIIIIIIIIIIIIIIII
AAAAAAA1111IIIIIII1111111IIIIIIIIIIIIIIIIIIIIIIIIIIIIIIIIIIIIIII
AAAAAAAA1111IIIIII11111111IIIIIIIIIIIIIIIIIIIIIIIIIIIIIIIIIIIIII
AAAAAAAAA1111IIIII111111111IIIIIIIIIIIIIIIIIIIIIIIIIIIIIIIIIIIII
AAAAAAAAAA1111IIII1111111111IIIIIIIIIIIIIIIIIIIIIIIIIIIIIIIIIIII
AAAAAAAAAAA1111III11111111111IIIIIIIIIIIIIIIIIIIIIIIIIIIIIIIIIII
AAAAAAAAAAAA1111II111111111111IIIIIIIIIIIIIIIIIIIIIIIIIIIIIIIIII
AAAAAAAAAAAAA1111I1111111111111IIIIIIIIIIIIIIIIIIIIIIIIIIIIIIIII
AAAAAAAAAAAAAA111111111111111111IIIIIIIIIIIIIIIIIIIIIIIIIIIIIIII
AAAAAAAAAAAAAAA111111111111111111IIIIIIIIIIIIIIIIIIIIIIIIIIIIIII
AAAAAAAAAAAAAAAA111111111111111111IIIIIIIIIIIIIIIIIIIIIIIIIIIIII
AAAAAAAAAAAAAAAAA111111111111111111IIIIIIIIIIIIIIIIIIIIIIIIIIIII
AAAAAAAAAAAAAAAAAA111111111111111111IIIIIIIIIIIIIIIIIIIIIIIIIIII
AAAAAAAAAAAAAAAAAAA111111111111111111IIIIIIIIIIIIIIIIIIIIIIIIIII
AAAAAAAAAAAAAAAAAAAA111111111111111111IIIIIIIIIIIIIIIIIIIIIIIIII
AAAAAAAAAAAAAAAAAAAAA111111111111111111IIIIIIIIIIIIIIIIIIIIIIIII
AAAAAAAAAAAAAAAAAAAAAA111111111111111111IIIIIIIIIIIIIIIIIIIIIIII
AAAAAAAAAAAAAAAAAAAAAAA111111111111111111IIIIIIIIIIIIIIIIIIIIIII
AAAAAAAAAAAAAAAAAAAAAAAA111111111111111111IIIIIIIIIIIIIIIIIIIIII
AAAAAAAAAAAAAAAAAAAAAAAAA111111111111111111IIIIIIIIIIIIIIIIIIIII
AAAAAAAAAAAAAAAAAAAAAAAAAA111111111111111111IIIIIIIIIIIIIIIIIIII
AAAAAAAAAAAAAAAAAAAAAAAAAAA111111111111111111IIIIIIIIIIIIIIIIIII
AAAAAAAAAAAAAAAAAAAAAAAAAAAA111111111111111111IIIIIIIIIIIIIIIIII
AAAAAAAAAAAAAAAAAAAAAAAAAAAAA111111111111111111IIIIIIIIIIIIIIIII
AAAAAAAAAAAAAAAAAAAAAAAAAAAAAA111111111111111111IIIIIIIIIIIIIIII
AAAAAAAAAAAAAAAAAAAAAAAAAAAAAAA111111111111111111IIIIIIIIIIIIIII
AAAAAAAAAAAAAAAAAAAAAAAAAAAAAAAA111111111111111111IIIIIIIIIIIIII
AAAAAAAAAAAAAAAAAAAAAAAAAAAAAAAAA111111111111111111IIIIIIIIIIIII
AAAAAAAAAAAAAAAAAAAAAAAAAAAAAAAAAA111111111111111111IIIIIIIIIIII
AAAAAAAAAAAAAAAAAAAAAAAAAAAAAAAAAAA111111111111111111IIIIIIIIIII
AAAAAAAAAAAAAAAAAAAAAAAAAAAAAAAAAAAA111111111111111111IIIIIIIIII
AAAAAAAAAAAAAAAAAAAAAAAAAAAAAAAAAAAAA111111111111111111IIIIIIIII
AAAAAAAAAAAAAAAAAAAAAAAAAAAAAAAAAAAAAA111111111111111111IIIIIIII
AAAAAAAAAAAAAAAAAAAAAAAAAAAAAAAAAAAAAAA111111111111111111IIIIIII
AAAAAAAAAAAAAAAAAAAAAAAAAAAAAAAAAAAAAAAA111111111111111111IIIIII
AAAAAAAAAAAAAAAAAAAAAAAAAAAAAAAAAAAAAAAAA111111111111111111IIIII
AAAAAAAAAAAAAAAAAAAAAAAAAAAAAAAAAAAAAAAAAA111111111111111111IIII
AAAAAAAAAAAAAAAAAAAAAAAAAAAAAAAAAAAAAAAAAAA111111111111111111III
AAAAAAAAAAAAAAAAAAAAAAAAAAAAAAAAAAAAAAAAAAAA111111111111111111II
AAAAAAAAAAAAAAAAAAAAAAAAAAAAAAAAAAAAAAAAAAAAA111111111111111111I
AAAAAAAAAAAAAAAAAAAAAAAAAAAAAAAAAAAAAAAAAAAAAA111111111111111111
AAAAAAAAAAAAAAAAAAAAAAAAAAAAAAAAAAAAAAAAAAAAAAA11111111111111111
AAAAAAAAAAAAAAAAAAAAAAAAAAAAAAAAAAAAAAAAAAAAAAAA1111111111111111
AAAAAAAAAAAAAAAAAAAAAAAAAAAAAAAAAAAAAAAAAAAAAAAAA111111111111111
AAAAAAAAAAAAAAAAAAAAAAAAAAAAAAAAAAAAAAAAAAAAAAAAAA11111111111111
AAAAAAAAAAAAAAAAAAAAAAAAAAAAAAAAAAAAAAAAAAAAAAAAAAA1111111111111
AAAAAAAAAAAAAAAAAAAAAAAAAAAAAAAAAAAAAAAAAAAAAAAAAAAA111111111111
AAAAAAAAAAAAAAAAAAAAAAAAAAAAAAAAAAAAAAAAAAAAAAAAAAAAA11111111111
AAAAAAAAAAAAAAAAAAAAAAAAAAAAAAAAAAAAAAAAAAAAAAAAAAAAAA1111111111
AAAAAAAAAAAAAAAAAAAAAAAAAAAAAAAAAAAAAAAAAAAAAAAAAAAAAAA111111111
AAAAAAAAAAAAAAAAAAAAAAAAAAAAAAAAAAAAAAAAAAAAAAAAAAAAAAAA11111111
AAAAAAAAAAAAAAAAAAAAAAAAAAAAAAAAAAAAAAAAAAAAAAAAAAAAAAAAA1111111
AAAAAAAAAAAAAAAAAAAAAAAAAAAAAAAAAAAAAAAAAAAAAAAAAAAAAAAAAA111111
AAAAAAAAAAAAAAAAAAAAAAAAAAAAAAAAAAAAAAAAAAAAAAAAAAAAAAAAAAA11111
AAAAAAAAAAAAAAAAAAAAAAAAAAAAAAAAAAAAAAAAAAAAAAAAAAAAAAAAAAAA1111
AAAAAAAAAAAAAAAAAAAAAAAAAAAAAAAAAAAAAAAAAAAAAAAAAAAAAAAAAAAAA111
AAAAAAAAAAAAAAAAAAAAAAAAAAAAAAAAAAAAAAAAAAAAAAAAAAAAAAAAAAAAAA11
AAAAAAAAAAAAAAAAAAAAAAAAAAAAAAAAAAAAAAAAAAAAAAAAAAAAAAAAAAAAAAA1
AAAAAAAAAAAAAAAAAAAAAAAAAAAAAAAAAAAAAAAAAAAAAAAAAAAAAAAAAAAAAAAA
AIIIIIIIIIIIIIIIIIIIIIIIIIIIIIIIIIIIIIIIIIIIIIIIIIIIIIIIIIIIIIII
A11111II11IIIIIII1IIIIIIIIIIIIIIIIIIIIIIIIIIIIIIIIIIIIIIIIIIIIII
AA1111II11IIIIIII1IIIIIIIIIIIIIIIIIIIIIIIIIIIIIIIIIIIIIIIIIIIIII
AA11111I111IIIIII11IIIIIIIIIIIIIIIIIIIIIIIIIIIIIIIIIIIIIIIIIIIII
AAA1111I111IIIIII11IIIIIIIIIIIIIIIIIIIIIIIIIIIIIIIIIIIIIIIIIIIII
AAAA111I111IIIIII11IIIIIIIIIIIIIIIIIIIIIIIIIIIIIIIIIIIIIIIIIIIII
AAAAA11I111IIIIII11IIIIIIIIIIIIIIIIIIIIIIIIIIIIIIIIIIIIIIIIIIIII
AAAAA111111IIIIII11IIIIIIIIIIIIIIIIIIIIIIIIIIIIIIIIIIIIIIIIIIIII
AAAAAA11111IIIIII11IIIIIIIIIIIIIIIIIIIIIIIIIIIIIIIIIIIIIIIIIIIII
AAAAAA11111II11II11IIIIIIIIIIIIIIIIIIIIIIIIIIIIIIIIIIIIIIIIIIIII
AAAAAAA1111II11II11IIIIIIIIIIIIIIIIIIIIIIIIIIIIIIIIIIIIIIIIIIIII
AAAAAAA11111I111I11IIIIIIIIIIIIIIIIIIIIIIIIIIIIIIIIIIIIIIIIIIIII
AAAAAAA11111I111I11IIII1IIIIIIIIIIIIIIIIIIIIIIIIIIIIIIIIIIIIIIII
AAAAAAAA1111I111I11IIII1IIIIIIIIIIIIIIIIIIIIIIIIIIIIIIIIIIIIIIII
AAAAAAAA11111111111IIII1IIIIIIIIIIIIIIIIIIIIIIIIIIIIIIIIIIIIIIII
AAAAAAAA11111111111IIII11IIIIIIIIIIIIIIIIIIIIIIIIIIIIIIIIIIIIIII
AAAAAAAAA1111111111IIII11IIIIIIIIIIIIIIIIIIIIIIIIIIIIIIIIIIIIIII
AAAAAAAAA1111111111IIII111IIIIIIIIIIIIIIIIIIIIIIIIIIIIIIIIIIIIII
AAAAAAAAAA111111111IIII1111IIIIIIIIIIIIIIIIIIIIIIIIIIIIIIIIIIIII
AAAAAAAAAAA11111111IIII1111IIIIIIIIIIIIIIIIIIIIIIIIIIIIIIIIIIIII
AAAAAAAAAAA111111111III11111IIIIIIIIIIIIIIIIIIIIIIIIIIIIIIIIIIII
AAAAAAAAAAAA111111111II111111IIIIIIIIIIIIIIIIIIIIIIIIIIIIIIIIIII
AAAAAAAAAAAAA11111111II111111IIIIIIIIIIIIIIIIIIIIIIIIIIIIIIIIIII
AAAAAAAAAAAAA111111111I1111111IIIIIIIIIIIIIIIIIIIIIIIIIIIIIIIIII
AAAAAAAAAAAAAA11111111111111111IIIIIIIIIIIIIIIIIIIIIIIIIIIIIIIII
AAAAAAAAAAAAAAA1111111111111111IIIIIIIIIIIIIIIIIIIIIIIIIIIIIIIII
AAAAAAAAAAAAAAA11111111111111111IIIIIIIIIIIIIIIIIIIIIIIIIIIIIIII
AAAAAAAAAAAAAAAA11111111111111111IIIIIIIIIIIIIIIIIIIIIIIIIIIIIII
AAAAAAAAAAAAAAAAA11111111111111111IIIIIIIIIIIIIIIIIIIIIIIIIIIIII
AAAAAAAAAAAAAAAAAA11111111111111111IIIIIIIIIIIIIIIIIIIIIIIIIIIII
AAAAAAAAAAAAAAAAAAA11111111111111111IIIIIIIIIIIIIIIIIIIIIIIIIIII
AAAAAAAAAAAAAAAAAAAA11111111111111111IIIIIIIIIIIIIIIIIIIIIIIIIII
AAAAAAAAAAAAAAAAAAAAA11111111111111111IIIIIIIIIIIIIIIIIIIIIIIIII
AAAAAAAAAAAAAAAAAAAAAA11111111111111111IIIIIIIIIIIIIIIIIIIIIIIII
AAAAAAAAAAAAAAAAAAAAAAA11111111111111111IIIIIIIIIIIIIIIIIIIIIIII
AAAAAAAAAAAAAAAAAAAAAAAA11111111111111111IIIIIIIIIIIIIIIIIIIIIII
AAAAAAAAAAAAAAAAAAAAAAAAA11111111111111111IIIIIIIIIIIIIIIIIIIIII
AAAAAAAAAAAAAAAAAAAAAAAAAA11111111111111111IIIIIIIIIIIIIIIIIIIII
AAAAAAAAAAAAAAAAAAAAAAAAAAA11111111111111111IIIIIIIIIIIIIIIIIIII
AAAAAAAAAAAAAAAAAAAAAAAAAAAA11111111111111111IIIIIIIIIIIIIIIIIII
AAAAAAAAAAAAAAAAAAAAAAAAAAAAA11111111111111111IIIIIIIIIIIIIIIIII
AAAAAAAAAAAAAAAAAAAAAAAAAAAAAA11111111111111111IIIIIIIIIIIIIIIII
AAAAAAAAAAAAAAAAAAAAAAAAAAAAAAA11111111111111111IIIIIIIIIIIIIIII
AAAAAAAAAAAAAAAAAAAAAAAAAAAAAAAA11111111111111111IIIIIIIIIIIIIII
AAAAAAAAAAAAAAAAAAAAAAAAAAAAAAAAA11111111111111111IIIIIIIIIIIIII
AAAAAAAAAAAAAAAAAAAAAAAAAAAAAAAAAA11111111111111111IIIIIIIIIIIII
AAAAAAAAAAAAAAAAAAAAAAAAAAAAAAAAAAA11111111111111111IIIIIIIIIIII
AAAAAAAAAAAAAAAAAAAAAAAAAAAAAAAAAAAA11111111111111111IIIIIIIIIII
AAAAAAAAAAAAAAAAAAAAAAAAAAAAAAAAAAAAA11111111111111111IIIIIIIIII
AAAAAAAAAAAAAAAAAAAAAAAAAAAAAAAAAAAAAA11111111111111111IIIIIIIII
AAAAAAAAAAAAAAAAAAAAAAAAAAAAAAAAAAAAAAA11111111111111111IIIIIIII
AAAAAAAAAAAAAAAAAAAAAAAAAAAAAAAAAAAAAAAA11111111111111111IIIIIII
AAAAAAAAAAAAAAAAAAAAAAAAAAAAAAAAAAAAAAAAA11111111111111111IIIIII
AAAAAAAAAAAAAAAAAAAAAAAAAAAAAAAAAAAAAAAAAA11111111111111111IIIII
AAAAAAAAAAAAAAAAAAAAAAAAAAAAAAAAAAAAAAAAAAA11111111111111111IIII
AAAAAAAAAAAAAAAAAAAAAAAAAAAAAAAAAAAAAAAAAAAA11111111111111111III
AAAAAAAAAAAAAAAAAAAAAAAAAAAAAAAAAAAAAAAAAAAAA11111111111111111II
AAAAAAAAAAAAAAAAAAAAAAAAAAAAAAAAAAAAAAAAAAAAAA11111111111111111I
AAAAAAAAAAAAAAAAAAAAAAAAAAAAAAAAAAAAAAAAAAAAAAA11111111111111111
AAAAAAAAAAAAAAAAAAAAAAAAAAAAAAAAAAAAAAAAAAAAAAAA1111111111111111
AAAAAAAAAAAAAAAAAAAAAAAAAAAAAAAAAAAAAAAAAAAAAAAAA111111111111111
AAAAAAAAAAAAAAAAAAAAAAAAAAAAAAAAAAAAAAAAAAAAAAAAAA11111111111111
AAAAAAAAAAAAAAAAAAAAAAAAAAAAAAAAAAAAAAAAAAAAAAAAAAA1111111111111
AAAAAAAAAAAAAAAAAAAAAAAAAAAAAAAAAAAAAAAAAAAAAAAAAAAA111111111111
AAAAAAAAAAAAAAAAAAAAAAAAAAAAAAAAAAAAAAAAAAAAAAAAAAAAA11111111111
AAAAAAAAAAAAAAAAAAAAAAAAAAAAAAAAAAAAAAAAAAAAAAAAAAAAAA1111111111
AAAAAAAAAAAAAAAAAAAAAAAAAAAAAAAAAAAAAAAAAAAAAAAAAAAAAAA111111111
AAAAAAAAAAAAAAAAAAAAAAAAAAAAAAAAAAAAAAAAAAAAAAAAAAAAAAAA11111111
AAAAAAAAAAAAAAAAAAAAAAAAAAAAAAAAAAAAAAAAAAAAAAAAAAAAAAAAA1111111
AAAAAAAAAAAAAAAAAAAAAAAAAAAAAAAAAAAAAAAAAAAAAAAAAAAAAAAAAA111111
AAAAAAAAAAAAAAAAAAAAAAAAAAAAAAAAAAAAAAAAAAAAAAAAAAAAAAAAAAA11111
AAAAAAAAAAAAAAAAAAAAAAAAAAAAAAAAAAAAAAAAAAAAAAAAAAAAAAAAAAAA1111
AAAAAAAAAAAAAAAAAAAAAAAAAAAAAAAAAAAAAAAAAAAAAAAAAAAAAAAAAAAAA111
AAAAAAAAAAAAAAAAAAAAAAAAAAAAAAAAAAAAAAAAAAAAAAAAAAAAAAAAAAAAAA11
AAAAAAAAAAAAAAAAAAAAAAAAAAAAAAAAAAAAAAAAAAAAAAAAAAAAAAAAAAAAAAA1
AAAAAAAAAAAAAAAAAAAAAAAAAAAAAAAAAAAAAAAAAAAAAAAAAAAAAAAAAAAAAAAA
IIIIAIIIIIIIIIIIIIIIIIIII1IIIIIIIIIIIIIIIIIIII2IIIIIIIIIIIIIIIII
IIIIAIIIIIAIIIIIIIIIIIIII1IIIII1IIIIIIIIIIIIII2IIIII2IIIIIIIIIII
IIIIAIIIIIAIIIIIIIIIAIIII1IIIII1IIIIIIIII1IIII2IIIII2IIIIIIIII2I
IIIIAIIIIIAIIIIIIIIIAIIII1IIIIIAIIIIIIIII1IIII2IIIII1IIIIIIIII2I
IIIIAIIIIIAIIIIAIIIIAIIII1IIIIIAIIII1IIII1IIII2IIIII1IIII2IIII2I
IIIIAIIIIIAIIIIAIIIIAIIII1IIIIIAIIII1IIIIAIIII2IIIII1IIII2IIII1I
IIIIAIIIIIAIIIIAIIIIAIIIIAIIIIIAIIII1IIIIAIIII1IIIII1IIII2IIII1I
IIIIAIIIIIAIIIIAIIIIAIIIIAIIIIIAIIII1IIIIAIIII1IIIIIAIIII2IIII1I
IIIIAIIIIIAIIIIAIIIIAIIIIAIIIIIAIIIIAIIIIAIIII1IIIIIAIIII2IIII1I
IIIIAIIIIIAIIIIAIIIIAIIIIAIIIIIAIIIIAIIIIAIIII1IIIIIAIIIIAIIII1I
IIIIAIIIIIAIIIIAIIIIAIIIIAIIIIIAIIIIAIIIIAIIIIAIIIIIAIIIIAIIII1I
IIIIAIIIIIAIIIIAIIIIAIIIIAIIIIIAIIIIAIIIIAIIIIAIIIIIAIIIIAIIIIAI
III1AIIIIIAIIIIAIIIIAIII2AIIIIIAIIIIAIIIIAIIIIAIIIIIAIIIIAIIIIAI
III1AIII1AAIIIIAIIIIAIII2AIII2IAIIIIAIIIIAIIIIAIIIIIAIIIIAIIIIAI
III1AIII1AAII1AAIIIIAIII2AIII2IAII2IAIIIIAIIIIAIIIIIAIIIIAIIIIAI
III1AIII1AAII1AAII1AAIII2AIII2IAII2IAII2IAIIIIAIIIIIAIIIIAIIIIAI
III1AIII1AAII1AAII1AAIII1AIII2IAII2IAII2IAIII2AIIIIIAIIIIAIIIIAI
III1AIII1AAII1AAII1AAIII1AIII2AAII2IAII2IAIII2AIIIIIAIIIIAIIIIAI
III1AIII1AAII1AAII1AAIII1AIII2AAII1AAII2IAIII2AIIIIIAII2IAIIIIAI
III1AIII1AAII1AAII1AAIII1AIII2AAII1AAII1AAIII2AIIIIIAII2IAII2IAI
III1AIII1AAII1AAII1AAIII1AIII2AAII1AAII1AAIII1AIIIIIAII2IAII2IAI
III1AIII1AAII1AAII1AAIII1AIII2AAII1AAII1AAIII1AIII1AAII2IAII2IAI
III1AIII1AAII1AAII1AAIII1AIII2AAII1AAII1AAIII1AIII1AAII2IAII1AAI
III1AIII1AAII1AAII1AAIII1AIII2AAII1AAII1AAIII1AIII1AAII1AAII1AAI
[MLOP] Prefetch Degree Mean: 5.22934
[MLOP] Prefetch Degree SD: 2.64088
[MLOP] Max Score Left Mean (%): 48.4384
[MLOP] Max Score Left SD (%): 26.9167
[MLOP] Max Score Right Mean (%): 87.0157
[MLOP] Max Score Right SD (%): 12.3494

DRAM Statistics
 CHANNEL 0
 RQ ROW_BUFFER_HIT:     366104  ROW_BUFFER_MISS:     841096
 DBUS_CONGESTED:        855
 WQ ROW_BUFFER_HIT:     106851  ROW_BUFFER_MISS:     283219  FULL:       7143

 AVG_CONGESTED_CYCLE: 4
 All warmup complete: 2
Channel 0 Bank busy for read cycles: 0
Channel 0 Bank busy for write cycles: 0
Channel 0
Rank 0
0banks busy for read cycles: 16253976
0banks busy for write cycles: 9310
1banks busy for read cycles: 10980062
1banks busy for write cycles: 1586620
2banks busy for read cycles: 8497753
2banks busy for write cycles: 792904
3banks busy for read cycles: 5937277
3banks busy for write cycles: 507584
4banks busy for read cycles: 4808455
4banks busy for write cycles: 406601
5banks busy for read cycles: 4363270
5banks busy for write cycles: 369285
6banks busy for read cycles: 3869866
6banks busy for write cycles: 363329
7banks busy for read cycles: 2881904
7banks busy for write cycles: 909738
8banks busy for read cycles: 2535843
8banks busy for write cycles: 6823387

CPU 0 Branch Prediction Accuracy: 94.351% MPKI: 2.76314 Average ROB Occupancy at Mispredict: 63.9945
Branch types
NOT_BRANCH: 47553996 95.108%
BRANCH_DIRECT_JUMP: 3916 0.007832%
BRANCH_INDIRECT: 0 0%
BRANCH_CONDITIONAL: 2424087 4.84817%
BRANCH_DIRECT_CALL: 8847 0.017694%
BRANCH_INDIRECT_CALL: 0 0%
BRANCH_RETURN: 8845 0.01769%
BRANCH_OTHER: 0 0%

DRAM PAGES: 1048576
Allocated PAGES: 7750
