Initialize SIGNATURE TABLE
ST_SET: 1
ST_WAY: 256
ST_TAG_BIT: 16
ST_TAG_MASK: ffff

Initialize PATTERN TABLE
PT_SET: 512
PT_WAY: 4
SIG_DELTA_BIT: 7
C_SIG_BIT: 4
C_DELTA_BIT: 4

Initialize PREFETCH FILTER
FILTER_SET: 1024

*** ChampSim Multicore Out-of-Order Simulator ***

Warmup Instructions: 50000000
Simulation Instructions: 50000000
Number of CPUs: 1
LLC sets: 2048
LLC ways: 16
Off-chip DRAM Size: 4096 MB Channels: 1 Width: 64-bit Data Rate: 6400 MT/s
CPU 0 runs ./tracer/traces/600.perlbench_s-570B.champsimtrace.xz
.xz
CPU 0 Bimodal branch predictor
BTB has LRU replacement policy
ITLB has LRU replacement policy
DTLB has LRU replacement policy
STLB has LRU replacement policy
L1I has LRU replacement policy
CPU 0 L1D Berti prefetcher
L1D has LRU replacement policy
ST_WAYS: 256
PT_SETS: 512
L2C has LRU replacement policy
Initialize Hawkeye state
Heartbeat CPU 0 instructions: 10000003 cycles: 2893695 heartbeat IPC: 3.45579 cumulative IPC: 3.45579 (Simulation time: 0 hr 0 min 58 sec) 
Heartbeat CPU 0 instructions: 20000003 cycles: 5752279 heartbeat IPC: 3.49824 cumulative IPC: 3.47688 (Simulation time: 0 hr 1 min 57 sec) 
Heartbeat CPU 0 instructions: 30000003 cycles: 8647414 heartbeat IPC: 3.45407 cumulative IPC: 3.46925 (Simulation time: 0 hr 2 min 56 sec) 
Heartbeat CPU 0 instructions: 40000002 cycles: 11518689 heartbeat IPC: 3.48277 cumulative IPC: 3.47262 (Simulation time: 0 hr 3 min 55 sec) 
Heartbeat CPU 0 instructions: 50000002 cycles: 14389617 heartbeat IPC: 3.48319 cumulative IPC: 3.47473 (Simulation time: 0 hr 4 min 56 sec) 

Warmup complete CPU 0 instructions: 50000002 cycles: 14389617 (Simulation time: 0 hr 4 min 56 sec) 

Heartbeat CPU 0 instructions: 60000000 cycles: 29595272 heartbeat IPC: 0.65765 cumulative IPC: 0.65765 (Simulation time: 0 hr 6 min 28 sec) 
Heartbeat CPU 0 instructions: 70000000 cycles: 53423537 heartbeat IPC: 0.41967 cumulative IPC: 0.512375 (Simulation time: 0 hr 8 min 5 sec) 
Heartbeat CPU 0 instructions: 80000002 cycles: 78985059 heartbeat IPC: 0.391213 cumulative IPC: 0.464429 (Simulation time: 0 hr 9 min 16 sec) 
Heartbeat CPU 0 instructions: 90000003 cycles: 110108047 heartbeat IPC: 0.321306 cumulative IPC: 0.417892 (Simulation time: 0 hr 11 min 10 sec) 
Heartbeat CPU 0 instructions: 100000002 cycles: 126336112 heartbeat IPC: 0.616216 cumulative IPC: 0.446642 (Simulation time: 0 hr 13 min 23 sec) 
Finished CPU 0 instructions: 50000000 cycles: 111946495 cumulative IPC: 0.446642 (Simulation time: 0 hr 13 min 23 sec) 

ChampSim completed all CPUs

Region of Interest Statistics

CPU 0 cumulative IPC: 0.446642 instructions: 50000000 cycles: 111946495
ITLB TOTAL     ACCESS:    7831429  HIT:    7808536  MISS:      22893  HIT %:    99.7077  MISS %:   0.292322   MPKI: 0.45786
ITLB LOAD TRANSLATION ACCESS:    7831429  HIT:    7808536  MISS:      22893  HIT %:    99.7077  MISS %:   0.292322   MPKI: 0.45786
ITLB PREFETCH  REQUESTED:          0  ISSUED:          0  USEFUL:          0  USELESS:          0
ITLB USEFUL LOAD PREFETCHES:          0 PREFETCH ISSUED TO LOWER LEVEL:          0  ACCURACY: -nan
ITLB TIMELY PREFETCHES:          0 LATE PREFETCHES: 0 DROPPED PREFETCHES: 0
ITLB PREFETCHES SAME FILL-ORIGIN LEVEL: 0 DIFFERENT FILL-ORIGIN LEVEL: 0
ITLB AVERAGE MISS LATENCY: 10.3325 cycles
ITLB RQ	ACCESS:    8823303	FORWARD:          0	MERGED:     983684	TO_CACHE:    7839619

DTLB TOTAL     ACCESS:   14062832  HIT:   13918313  MISS:     144519  HIT %:    98.9723  MISS %:    1.02767   MPKI: 2.89038
DTLB LOAD TRANSLATION ACCESS:   14062832  HIT:   13918313  MISS:     144519  HIT %:    98.9723  MISS %:    1.02767   MPKI: 2.89038
DTLB PREFETCH  REQUESTED:          0  ISSUED:          0  USEFUL:          0  USELESS:          0
DTLB USEFUL LOAD PREFETCHES:          0 PREFETCH ISSUED TO LOWER LEVEL:          0  ACCURACY: -nan
DTLB TIMELY PREFETCHES:          0 LATE PREFETCHES: 0 DROPPED PREFETCHES: 0
DTLB PREFETCHES SAME FILL-ORIGIN LEVEL: 0 DIFFERENT FILL-ORIGIN LEVEL: 0
DTLB AVERAGE MISS LATENCY: 15.6966 cycles
DTLB RQ	ACCESS:   19075453	FORWARD:          0	MERGED:    5008542	TO_CACHE:   14066911

STLB TOTAL     ACCESS:    4687198  HIT:    4679860  MISS:       7338  HIT %:    99.8434  MISS %:   0.156554   MPKI: 0.14676
STLB LOAD TRANSLATION ACCESS:     167412  HIT:     160645  MISS:       6767  HIT %:    95.9579  MISS %:    4.04212   MPKI: 0.13534
STLB TRANSLATION FROM L1D PREFETCHER ACCESS:    4519786  HIT:    4519215  MISS:        571  HIT %:    99.9874  MISS %:  0.0126333   MPKI: 0.01142
STLB PREFETCH  REQUESTED:          0  ISSUED:          0  USEFUL:        392  USELESS:        145
STLB USEFUL LOAD PREFETCHES:        392 PREFETCH ISSUED TO LOWER LEVEL:          0  ACCURACY: inf
STLB TIMELY PREFETCHES:        392 LATE PREFETCHES: 25 DROPPED PREFETCHES: 641
STLB PREFETCHES SAME FILL-ORIGIN LEVEL: 0 DIFFERENT FILL-ORIGIN LEVEL: 0
STLB AVERAGE MISS LATENCY: 141.667 cycles
STLB RQ	ACCESS:    5591686	FORWARD:          0	MERGED:     903792	TO_CACHE:    4687894

STLB Hit, L1D data hit: 0
STLB Hit, L2C data hit: 0
STLB Hit, LLC data hit: 0
STLB Hit, LLC data miss: 0
STLB STLB hints to L2: 0
L1D TOTAL     ACCESS:   24431013  HIT:   24136005  MISS:     295008  HIT %:    98.7925  MISS %:    1.20751   MPKI: 5.90016
L1D LOAD      ACCESS:    9318489  HIT:    9173388  MISS:     145101  HIT %:    98.4429  MISS %:    1.55713   MPKI: 2.90202
L1D RFO       ACCESS:    9708631  HIT:    9686076  MISS:      22555  HIT %:    99.7677  MISS %:   0.232319   MPKI: 0.4511
L1D PREFETCH  ACCESS:    5403893  HIT:    5276541  MISS:     127352  HIT %:    97.6433  MISS %:    2.35667   MPKI: 2.54704
AGUS PREFETCH L1 MISS: 0
L1D PREFETCH  REQUESTED:   10988608  ISSUED:   10988608  USEFUL:      29082  USELESS:      98269
L1D USEFUL LOAD PREFETCHES:      29082 PREFETCH ISSUED TO LOWER LEVEL:     128304  ACCURACY: 22.6665
L1D TIMELY PREFETCHES:      29082 LATE PREFETCHES: 940 DROPPED PREFETCHES: 677
L1D PREFETCHES SAME FILL-ORIGIN LEVEL: 128304 DIFFERENT FILL-ORIGIN LEVEL: 0
L1D AVERAGE MISS LATENCY: 261792 cycles
L1D RQ	ACCESS:   11812169	FORWARD:          0	MERGED:    2224584	TO_CACHE:    9327710
L1D WQ	ACCESS:    9859024	FORWARD:     263614	MERGED:     111281	TO_CACHE:    9747743
L1D PQ	ACCESS:    5564334	FORWARD:          0	MERGED:     136321	TO_CACHE:    5424274

L1D UNIQUE REGIONS ACCESSED: 0
L1D REGIONS CONFLICTS: 0
L1D Cross Page Prefetch Requests: 0
L1D Same Page Prefetch Requests: 10585625
L1D ROI Sum of L1D PQ occupancy: 68691582
L1D PREFETCHES PUSHED FROM L2C: 0
L1I TOTAL     ACCESS:    8763750  HIT:    8505636  MISS:     258114  HIT %:    97.0548  MISS %:    2.94525   MPKI: 5.16228
L1I LOAD      ACCESS:    8763750  HIT:    8505636  MISS:     258114  HIT %:    97.0548  MISS %:    2.94525   MPKI: 5.16228
L1I PREFETCH  REQUESTED:          0  ISSUED:          0  USEFUL:          0  USELESS:          0
L1I USEFUL LOAD PREFETCHES:          0 PREFETCH ISSUED TO LOWER LEVEL:          0  ACCURACY: -nan
L1I TIMELY PREFETCHES:          0 LATE PREFETCHES: 0 DROPPED PREFETCHES: 0
L1I PREFETCHES SAME FILL-ORIGIN LEVEL: 0 DIFFERENT FILL-ORIGIN LEVEL: 0
L1I AVERAGE MISS LATENCY: 18.4359 cycles
L1I RQ	ACCESS:   14031412	FORWARD:          0	MERGED:    5208109	TO_CACHE:    8823303

BTB TOTAL     ACCESS:    6455176  HIT:    6061139  MISS:     394037  HIT %:    93.8958  MISS %:     6.1042   MPKI: 7.88074
BTB BRANCH_DIRECT_JUMP	ACCESS:    1045243  HIT:    1041753  MISS:       3490
BTB BRANCH_INDIRECT	ACCESS:     321894  HIT:     103579  MISS:     218315
BTB BRANCH_CONDITIONAL	ACCESS:    4118131  HIT:    4108360  MISS:       9771
BTB BRANCH_DIRECT_CALL	ACCESS:     381768  HIT:     379264  MISS:       2504
BTB BRANCH_INDIRECT_CALL	ACCESS:     103186  HIT:      11246  MISS:      91940
BTB BRANCH_RETURN	ACCESS:     484954  HIT:     416937  MISS:      68017
BTB BRANCH_OTHER ACCESS:           0  HIT:          0  MISS:          0

L2C TOTAL     ACCESS:     648947  HIT:     511436  MISS:     137511  HIT %:    78.8101  MISS %:    21.1899   MPKI: 2.75022
L2C LOAD      ACCESS:     402274  HIT:     331584  MISS:      70690  HIT %:    82.4274  MISS %:    17.5726   MPKI: 1.4138
L2C DATA LOAD MPKI: 1.10154
L2C INSTRUCTION LOAD MPKI: 0.31226
L2C RFO       ACCESS:      22543  HIT:      17226  MISS:       5317  HIT %:     76.414  MISS %:     23.586   MPKI: 0.10634
L2C PREFETCH  ACCESS:     152808  HIT:      95688  MISS:      57120  HIT %:    62.6198  MISS %:    37.3802   MPKI: 1.1424
AGUS PREFETCH L1 MISS: 0
L2C DATA PREFETCH MPKI: 1.1424
L2C INSTRUCTION PREFETCH MPKI: 0
L2C WRITEBACK ACCESS:      61523  HIT:      61215  MISS:        308  HIT %:    99.4994  MISS %:   0.500626   MPKI: 0.00616
L2C LOAD TRANSLATION ACCESS:       8038  HIT:       4402  MISS:       3636  HIT %:    54.7649  MISS %:    45.2351   MPKI: 0.07272
L2C TRANSLATION FROM L1D PREFETCHER ACCESS:       1761  HIT:       1321  MISS:        440  HIT %:    75.0142  MISS %:    24.9858   MPKI: 0.0088
L2C PREFETCH  REQUESTED:      45944  ISSUED:      45944  USEFUL:       3868  USELESS:      53580
L2C USEFUL LOAD PREFETCHES:       3868 PREFETCH ISSUED TO LOWER LEVEL:      75023  ACCURACY: 5.15575
L2C TIMELY PREFETCHES:       3868 LATE PREFETCHES: 0 DROPPED PREFETCHES: 0
L2C PREFETCHES SAME FILL-ORIGIN LEVEL: 211 DIFFERENT FILL-ORIGIN LEVEL: 17903
L2C AVERAGE MISS LATENCY: 130.052 cycles
L2C RQ	ACCESS:     434617	FORWARD:          0	MERGED:          0	TO_CACHE:     434616
L2C WQ	ACCESS:      61523	FORWARD:          4	MERGED:          0	TO_CACHE:      61523
L2C PQ	ACCESS:     174248	FORWARD:          0	MERGED:       2735	TO_CACHE:     171510

L2C Instructions Evicting Data 13361
L2C Translations Evicting Data 3477
L2C Data Evicting Data 100046
L2C Instructions Evicting Instructions 1645
L2C Translations Evicting Instructions 432
L2C Data Evicting Instructions 13202
L2C Instructions Evicting Translations 468
L2C Translations Evicting Translations 127
L2C Data Evicting Translations 3367
L2C Dense regions hint from L2: 0
PSCL5 TOTAL     ACCESS:       7979  HIT:       7979  MISS:          0  HIT %:        100  MISS %:          0   MPKI: 0
PSCL5 LOAD TRANSLATION ACCESS:       6742  HIT:       6742  MISS:          0  HIT %:        100  MISS %:          0   MPKI: 0
PSCL5 TRANSLATION FROM L1D PREFETCHER ACCESS:       1237  HIT:       1237  MISS:          0  HIT %:        100  MISS %:          0   MPKI: 0
PSCL5 PREFETCH  REQUESTED:          0  ISSUED:          0  USEFUL:          0  USELESS:          0
PSCL5 USEFUL LOAD PREFETCHES:          0 PREFETCH ISSUED TO LOWER LEVEL:          0  ACCURACY: -nan
PSCL5 TIMELY PREFETCHES:          0 LATE PREFETCHES: 0 DROPPED PREFETCHES: 0
PSCL5 PREFETCHES SAME FILL-ORIGIN LEVEL: 0 DIFFERENT FILL-ORIGIN LEVEL: 0

PSCL4 TOTAL     ACCESS:       7979  HIT:       7979  MISS:          0  HIT %:        100  MISS %:          0   MPKI: 0
PSCL4 LOAD TRANSLATION ACCESS:       6742  HIT:       6742  MISS:          0  HIT %:        100  MISS %:          0   MPKI: 0
PSCL4 TRANSLATION FROM L1D PREFETCHER ACCESS:       1237  HIT:       1237  MISS:          0  HIT %:        100  MISS %:          0   MPKI: 0
PSCL4 PREFETCH  REQUESTED:          0  ISSUED:          0  USEFUL:          0  USELESS:          0
PSCL4 USEFUL LOAD PREFETCHES:          0 PREFETCH ISSUED TO LOWER LEVEL:          0  ACCURACY: -nan
PSCL4 TIMELY PREFETCHES:          0 LATE PREFETCHES: 0 DROPPED PREFETCHES: 0
PSCL4 PREFETCHES SAME FILL-ORIGIN LEVEL: 0 DIFFERENT FILL-ORIGIN LEVEL: 0

PSCL3 TOTAL     ACCESS:       7979  HIT:       7979  MISS:          0  HIT %:        100  MISS %:          0   MPKI: 0
PSCL3 LOAD TRANSLATION ACCESS:       6742  HIT:       6742  MISS:          0  HIT %:        100  MISS %:          0   MPKI: 0
PSCL3 TRANSLATION FROM L1D PREFETCHER ACCESS:       1237  HIT:       1237  MISS:          0  HIT %:        100  MISS %:          0   MPKI: 0
PSCL3 PREFETCH  REQUESTED:          0  ISSUED:          0  USEFUL:          0  USELESS:          0
PSCL3 USEFUL LOAD PREFETCHES:          0 PREFETCH ISSUED TO LOWER LEVEL:          0  ACCURACY: -nan
PSCL3 TIMELY PREFETCHES:          0 LATE PREFETCHES: 0 DROPPED PREFETCHES: 0
PSCL3 PREFETCHES SAME FILL-ORIGIN LEVEL: 0 DIFFERENT FILL-ORIGIN LEVEL: 0

PSCL2 TOTAL     ACCESS:       7624  HIT:       6106  MISS:       1518  HIT %:    80.0892  MISS %:    19.9108   MPKI: 0.03036
PSCL2 LOAD TRANSLATION ACCESS:       6911  HIT:       5393  MISS:       1518  HIT %:     78.035  MISS %:     21.965   MPKI: 0.03036
PSCL2 TRANSLATION FROM L1D PREFETCHER ACCESS:        713  HIT:        713  MISS:          0  HIT %:        100  MISS %:          0   MPKI: 0
PSCL2 PREFETCH  REQUESTED:          0  ISSUED:          0  USEFUL:          0  USELESS:          0
PSCL2 USEFUL LOAD PREFETCHES:          0 PREFETCH ISSUED TO LOWER LEVEL:          0  ACCURACY: -nan
PSCL2 TIMELY PREFETCHES:          0 LATE PREFETCHES: 0 DROPPED PREFETCHES: 0
PSCL2 PREFETCHES SAME FILL-ORIGIN LEVEL: 0 DIFFERENT FILL-ORIGIN LEVEL: 0

LLC TOTAL     ACCESS:     173358  HIT:      67453  MISS:     105905  HIT %:    38.9097  MISS %:    61.0903   MPKI: 2.1181
LLC LOAD      ACCESS:      70690  HIT:      23881  MISS:      46809  HIT %:    33.7827  MISS %:    66.2173   MPKI: 0.93618
LLC RFO       ACCESS:       5317  HIT:       1973  MISS:       3344  HIT %:    37.1074  MISS %:    62.8926   MPKI: 0.06688
LLC PREFETCH  ACCESS:      74415  HIT:      23375  MISS:      51040  HIT %:    31.4117  MISS %:    68.5883   MPKI: 1.0208
AGUS PREFETCH L1 MISS: 0
LLC WRITEBACK ACCESS:      18860  HIT:      16153  MISS:       2707  HIT %:    85.6469  MISS %:    14.3531   MPKI: 0.05414
LLC LOAD TRANSLATION ACCESS:       3636  HIT:       1775  MISS:       1861  HIT %:    48.8174  MISS %:    51.1826   MPKI: 0.03722
LLC TRANSLATION FROM L1D PREFETCHER ACCESS:        440  HIT:        296  MISS:        144  HIT %:    67.2727  MISS %:    32.7273   MPKI: 0.00288
LLC PREFETCH  REQUESTED:          0  ISSUED:          0  USEFUL:       4411  USELESS:      34181
LLC USEFUL LOAD PREFETCHES:       4411 PREFETCH ISSUED TO LOWER LEVEL:      51209  ACCURACY: 8.61372
LLC TIMELY PREFETCHES:       4411 LATE PREFETCHES: 169 DROPPED PREFETCHES: 0
LLC PREFETCHES SAME FILL-ORIGIN LEVEL: 11048 DIFFERENT FILL-ORIGIN LEVEL: 0
LLC AVERAGE MISS LATENCY: 145.439 cycles
LLC RQ	ACCESS:      80083	FORWARD:          0	MERGED:          0	TO_CACHE:      80083
LLC WQ	ACCESS:      18860	FORWARD:          0	MERGED:          0	TO_CACHE:      18860
LLC PQ	ACCESS:      75023	FORWARD:          0	MERGED:        102	TO_CACHE:      74921

LLC Dense regions hint to LLC: 0

RAW hits: 720673
Loads Generated: 12532841
Loads sent to L1D: 11812169
Stores Generated: 9859017
Stores sent to L1D: 9859024
Major fault: 0 Minor fault: 5057
Allocated PAGES: 5057
CPU 0 L1D berti prefetcher final stats
0-> Hits: 603, Late: 67, Early: 0, Misses: 3
1-> Hits: 4306, Late: 57, Early: 0, Misses: 0
2-> Hits: 4925, Late: 72, Early: 0, Misses: 0
3-> Hits: 3876, Late: 466, Early: 0, Misses: 4
5-> Hits: 769, Late: 0, Early: 0, Misses: 0
6-> Hits: 628, Late: 47, Early: 0, Misses: 0
7-> Hits: 2832, Late: 22, Early: 0, Misses: 0
8-> Hits: 1154, Late: 270, Early: 0, Misses: 9
9-> Hits: 30, Late: 0, Early: 0, Misses: 0
a-> Hits: 3535, Late: 419, Early: 0, Misses: 0
b-> Hits: 1392, Late: 0, Early: 0, Misses: 0
c-> Hits: 6, Late: 0, Early: 0, Misses: 0
d-> Hits: 4, Late: 0, Early: 0, Misses: 0
e-> Hits: 9175, Late: 17, Early: 0, Misses: 0
f-> Hits: 118, Late: 0, Early: 0, Misses: 0
10-> Hits: 656, Late: 1, Early: 0, Misses: 0
11-> Hits: 974, Late: 16, Early: 0, Misses: 0
12-> Hits: 55, Late: 0, Early: 0, Misses: 0
13-> Hits: 68, Late: 0, Early: 0, Misses: 0
14-> Hits: 4558, Late: 23, Early: 0, Misses: 0
15-> Hits: 1828, Late: 89, Early: 0, Misses: 0
17-> Hits: 4, Late: 0, Early: 0, Misses: 0
18-> Hits: 53, Late: 102, Early: 0, Misses: 0
19-> Hits: 61, Late: 0, Early: 0, Misses: 0
1a-> Hits: 301, Late: 2, Early: 0, Misses: 0
1b-> Hits: 1052, Late: 0, Early: 0, Misses: 0
1c-> Hits: 3453, Late: 315, Early: 0, Misses: 0
1d-> Hits: 832, Late: 0, Early: 0, Misses: 0
1e-> Hits: 1337, Late: 0, Early: 0, Misses: 0
1f-> Hits: 7163, Late: 0, Early: 0, Misses: 0
20-> Hits: 9903, Late: 444, Early: 0, Misses: 0
21-> Hits: 1379, Late: 90, Early: 0, Misses: 0
23-> Hits: 887, Late: 1, Early: 0, Misses: 0
24-> Hits: 15, Late: 10, Early: 0, Misses: 0
25-> Hits: 42313, Late: 72, Early: 0, Misses: 0
26-> Hits: 676, Late: 0, Early: 0, Misses: 0
28-> Hits: 231, Late: 0, Early: 0, Misses: 0
29-> Hits: 6, Late: 6, Early: 0, Misses: 0
2a-> Hits: 922, Late: 243, Early: 0, Misses: 3
2b-> Hits: 313, Late: 0, Early: 0, Misses: 0
2c-> Hits: 3764, Late: 10, Early: 0, Misses: 0
2d-> Hits: 413, Late: 8, Early: 0, Misses: 0
2e-> Hits: 114, Late: 0, Early: 0, Misses: 0
2f-> Hits: 167, Late: 0, Early: 0, Misses: 0
30-> Hits: 766, Late: 0, Early: 0, Misses: 0
31-> Hits: 196, Late: 0, Early: 0, Misses: 0
32-> Hits: 989, Late: 0, Early: 0, Misses: 0
33-> Hits: 214, Late: 0, Early: 0, Misses: 0
34-> Hits: 120, Late: 0, Early: 0, Misses: 0
35-> Hits: 11, Late: 0, Early: 0, Misses: 0
36-> Hits: 5, Late: 0, Early: 0, Misses: 0
37-> Hits: 381, Late: 387, Early: 0, Misses: 0
38-> Hits: 3022, Late: 869, Early: 0, Misses: 1
39-> Hits: 65, Late: 20, Early: 0, Misses: 0
3a-> Hits: 3425, Late: 1, Early: 0, Misses: 0
3b-> Hits: 2, Late: 0, Early: 0, Misses: 0
3c-> Hits: 480, Late: 3, Early: 0, Misses: 0
3d-> Hits: 805, Late: 94, Early: 0, Misses: 0
3e-> Hits: 3, Late: 2, Early: 0, Misses: 0
3f-> Hits: 10030, Late: 73, Early: 0, Misses: 0
40-> Hits: 17793, Late: 220, Early: 0, Misses: 9
41-> Hits: 86, Late: 0, Early: 0, Misses: 0
42-> Hits: 10690, Late: 0, Early: 0, Misses: 0
43-> Hits: 5, Late: 0, Early: 0, Misses: 0
44-> Hits: 1018, Late: 203, Early: 0, Misses: 0
45-> Hits: 20, Late: 0, Early: 0, Misses: 0
46-> Hits: 285, Late: 0, Early: 0, Misses: 0
47-> Hits: 3448, Late: 0, Early: 0, Misses: 0
48-> Hits: 251, Late: 0, Early: 0, Misses: 0
49-> Hits: 1296, Late: 26, Early: 0, Misses: 0
4a-> Hits: 287, Late: 0, Early: 0, Misses: 0
4c-> Hits: 123, Late: 0, Early: 0, Misses: 0
4d-> Hits: 521, Late: 0, Early: 0, Misses: 0
4e-> Hits: 57, Late: 0, Early: 0, Misses: 0
50-> Hits: 75, Late: 0, Early: 0, Misses: 0
51-> Hits: 50, Late: 0, Early: 0, Misses: 0
52-> Hits: 4781, Late: 0, Early: 0, Misses: 0
54-> Hits: 69, Late: 0, Early: 0, Misses: 0
55-> Hits: 1505, Late: 11, Early: 0, Misses: 8
56-> Hits: 176, Late: 0, Early: 0, Misses: 0
57-> Hits: 1301, Late: 0, Early: 0, Misses: 0
58-> Hits: 7702, Late: 548, Early: 0, Misses: 2
59-> Hits: 143, Late: 0, Early: 0, Misses: 0
5a-> Hits: 13, Late: 0, Early: 0, Misses: 0
5b-> Hits: 125493, Late: 222, Early: 0, Misses: 15
5c-> Hits: 1188, Late: 34, Early: 0, Misses: 0
5d-> Hits: 224, Late: 5, Early: 0, Misses: 0
5e-> Hits: 344, Late: 0, Early: 0, Misses: 0
5f-> Hits: 760, Late: 117, Early: 0, Misses: 1
60-> Hits: 56492, Late: 0, Early: 0, Misses: 0
61-> Hits: 219, Late: 0, Early: 0, Misses: 0
62-> Hits: 111, Late: 0, Early: 0, Misses: 0
63-> Hits: 1207, Late: 35, Early: 0, Misses: 0
64-> Hits: 23, Late: 0, Early: 0, Misses: 0
65-> Hits: 4862, Late: 0, Early: 0, Misses: 0
66-> Hits: 3, Late: 0, Early: 0, Misses: 0
69-> Hits: 7007, Late: 0, Early: 0, Misses: 0
6a-> Hits: 3869, Late: 2, Early: 0, Misses: 0
6b-> Hits: 13, Late: 0, Early: 0, Misses: 0
6c-> Hits: 5583, Late: 6, Early: 0, Misses: 7
6d-> Hits: 89, Late: 0, Early: 0, Misses: 0
6f-> Hits: 128423, Late: 0, Early: 0, Misses: 0
70-> Hits: 312, Late: 0, Early: 0, Misses: 0
71-> Hits: 146, Late: 1, Early: 0, Misses: 0
72-> Hits: 112, Late: 1, Early: 0, Misses: 0
73-> Hits: 312, Late: 0, Early: 0, Misses: 0
74-> Hits: 1, Late: 0, Early: 0, Misses: 0
75-> Hits: 127, Late: 3, Early: 0, Misses: 0
76-> Hits: 2272, Late: 55, Early: 0, Misses: 0
77-> Hits: 168170, Late: 0, Early: 0, Misses: 0
79-> Hits: 4898, Late: 0, Early: 0, Misses: 0
7a-> Hits: 1592, Late: 0, Early: 0, Misses: 0
7b-> Hits: 514, Late: 0, Early: 0, Misses: 0
7c-> Hits: 24, Late: 0, Early: 0, Misses: 0
7d-> Hits: 485, Late: 0, Early: 0, Misses: 0
7e-> Hits: 112, Late: 0, Early: 0, Misses: 0
7f-> Hits: 64907, Late: 0, Early: 0, Misses: 0
80-> Hits: 5062, Late: 817, Early: 0, Misses: 7
81-> Hits: 1250, Late: 7, Early: 0, Misses: 0
82-> Hits: 98, Late: 0, Early: 0, Misses: 0
83-> Hits: 4147, Late: 1, Early: 0, Misses: 0
84-> Hits: 523, Late: 0, Early: 0, Misses: 0
85-> Hits: 267, Late: 0, Early: 0, Misses: 0
86-> Hits: 3044, Late: 1, Early: 0, Misses: 0
87-> Hits: 148, Late: 0, Early: 0, Misses: 0
88-> Hits: 155, Late: 0, Early: 0, Misses: 0
89-> Hits: 182, Late: 0, Early: 0, Misses: 0
8a-> Hits: 1, Late: 0, Early: 0, Misses: 0
8b-> Hits: 580, Late: 0, Early: 0, Misses: 0
8c-> Hits: 588, Late: 0, Early: 0, Misses: 0
8d-> Hits: 1, Late: 0, Early: 0, Misses: 0
8e-> Hits: 209, Late: 0, Early: 0, Misses: 0
8f-> Hits: 8, Late: 0, Early: 0, Misses: 0
90-> Hits: 5832, Late: 0, Early: 0, Misses: 0
91-> Hits: 39, Late: 2, Early: 0, Misses: 0
92-> Hits: 3682, Late: 0, Early: 0, Misses: 0
94-> Hits: 72875, Late: 0, Early: 0, Misses: 0
95-> Hits: 748, Late: 6, Early: 0, Misses: 0
96-> Hits: 15, Late: 0, Early: 0, Misses: 0
97-> Hits: 286, Late: 0, Early: 0, Misses: 0
98-> Hits: 5832, Late: 1, Early: 0, Misses: 0
9a-> Hits: 142, Late: 0, Early: 0, Misses: 0
9b-> Hits: 596, Late: 1, Early: 0, Misses: 0
9c-> Hits: 3784, Late: 0, Early: 0, Misses: 0
9d-> Hits: 2, Late: 0, Early: 0, Misses: 0
9e-> Hits: 1135, Late: 20, Early: 0, Misses: 0
9f-> Hits: 308, Late: 0, Early: 0, Misses: 0
a0-> Hits: 1216, Late: 1, Early: 0, Misses: 0
a1-> Hits: 112, Late: 2, Early: 0, Misses: 0
a2-> Hits: 718, Late: 63, Early: 0, Misses: 0
a3-> Hits: 36, Late: 1, Early: 0, Misses: 0
a4-> Hits: 1, Late: 0, Early: 0, Misses: 0
a5-> Hits: 2, Late: 6, Early: 0, Misses: 0
a6-> Hits: 9, Late: 0, Early: 0, Misses: 0
a7-> Hits: 1253, Late: 0, Early: 0, Misses: 0
a8-> Hits: 1369, Late: 0, Early: 0, Misses: 0
a9-> Hits: 2, Late: 0, Early: 0, Misses: 0
aa-> Hits: 1253, Late: 0, Early: 0, Misses: 0
ab-> Hits: 299, Late: 0, Early: 0, Misses: 0
ac-> Hits: 1358, Late: 2, Early: 0, Misses: 0
ad-> Hits: 29, Late: 0, Early: 0, Misses: 0
ae-> Hits: 4, Late: 0, Early: 0, Misses: 1
af-> Hits: 106, Late: 0, Early: 0, Misses: 0
b0-> Hits: 26, Late: 0, Early: 0, Misses: 0
b1-> Hits: 3062, Late: 0, Early: 0, Misses: 0
b2-> Hits: 3744, Late: 0, Early: 0, Misses: 0
b3-> Hits: 4644, Late: 4, Early: 0, Misses: 0
b4-> Hits: 5646, Late: 1, Early: 0, Misses: 0
b5-> Hits: 3738, Late: 0, Early: 0, Misses: 0
b6-> Hits: 155, Late: 0, Early: 0, Misses: 0
b7-> Hits: 3748, Late: 0, Early: 0, Misses: 0
b8-> Hits: 708, Late: 0, Early: 0, Misses: 0
b9-> Hits: 3761, Late: 0, Early: 0, Misses: 0
ba-> Hits: 20, Late: 0, Early: 0, Misses: 0
bb-> Hits: 3784, Late: 2, Early: 0, Misses: 0
bc-> Hits: 55208, Late: 1, Early: 0, Misses: 0
bd-> Hits: 1, Late: 0, Early: 0, Misses: 0
be-> Hits: 52, Late: 0, Early: 0, Misses: 0
bf-> Hits: 327, Late: 31, Early: 0, Misses: 0
c0-> Hits: 382, Late: 46, Early: 0, Misses: 0
c1-> Hits: 60, Late: 0, Early: 0, Misses: 0
c3-> Hits: 40126, Late: 3, Early: 0, Misses: 0
c5-> Hits: 118, Late: 32, Early: 0, Misses: 0
c6-> Hits: 520, Late: 0, Early: 0, Misses: 0
c7-> Hits: 125, Late: 1, Early: 0, Misses: 0
c8-> Hits: 262, Late: 0, Early: 0, Misses: 0
c9-> Hits: 6, Late: 0, Early: 0, Misses: 0
ca-> Hits: 4053, Late: 1, Early: 0, Misses: 0
cb-> Hits: 358, Late: 1, Early: 0, Misses: 0
cc-> Hits: 152, Late: 0, Early: 0, Misses: 0
cd-> Hits: 7, Late: 0, Early: 0, Misses: 0
ce-> Hits: 92, Late: 0, Early: 0, Misses: 0
cf-> Hits: 545, Late: 0, Early: 0, Misses: 0
d0-> Hits: 29, Late: 2, Early: 0, Misses: 0
d1-> Hits: 7, Late: 0, Early: 0, Misses: 0
d2-> Hits: 3393, Late: 0, Early: 0, Misses: 0
d3-> Hits: 211, Late: 0, Early: 0, Misses: 0
d4-> Hits: 214, Late: 0, Early: 0, Misses: 0
d5-> Hits: 48, Late: 0, Early: 0, Misses: 0
d6-> Hits: 357, Late: 0, Early: 0, Misses: 0
d7-> Hits: 937, Late: 0, Early: 0, Misses: 0
d9-> Hits: 4, Late: 0, Early: 0, Misses: 0
db-> Hits: 566, Late: 0, Early: 0, Misses: 0
dd-> Hits: 9, Late: 0, Early: 0, Misses: 0
df-> Hits: 615, Late: 12, Early: 0, Misses: 1
e0-> Hits: 19078, Late: 1, Early: 0, Misses: 0
e1-> Hits: 18, Late: 0, Early: 0, Misses: 0
e2-> Hits: 752, Late: 19, Early: 0, Misses: 0
e3-> Hits: 8381, Late: 329, Early: 0, Misses: 0
e5-> Hits: 12, Late: 0, Early: 0, Misses: 0
e6-> Hits: 6, Late: 0, Early: 0, Misses: 0
e7-> Hits: 1500, Late: 1, Early: 0, Misses: 0
e9-> Hits: 3295, Late: 0, Early: 0, Misses: 0
eb-> Hits: 769, Late: 0, Early: 0, Misses: 0
ec-> Hits: 402, Late: 0, Early: 0, Misses: 0
ed-> Hits: 691, Late: 0, Early: 0, Misses: 0
ee-> Hits: 71, Late: 0, Early: 0, Misses: 0
ef-> Hits: 4, Late: 0, Early: 0, Misses: 0
f0-> Hits: 105, Late: 0, Early: 0, Misses: 0
f1-> Hits: 1271, Late: 37, Early: 0, Misses: 0
f2-> Hits: 701, Late: 72, Early: 0, Misses: 0
f3-> Hits: 42, Late: 0, Early: 0, Misses: 0
f5-> Hits: 1475, Late: 2, Early: 0, Misses: 0
f6-> Hits: 769, Late: 0, Early: 0, Misses: 0
f7-> Hits: 284, Late: 0, Early: 0, Misses: 0
f8-> Hits: 853, Late: 0, Early: 0, Misses: 0
f9-> Hits: 32, Late: 0, Early: 0, Misses: 0
fa-> Hits: 797, Late: 0, Early: 0, Misses: 0
fb-> Hits: 2926, Late: 0, Early: 0, Misses: 0
fc-> Hits: 769, Late: 0, Early: 0, Misses: 0
fd-> Hits: 463, Late: 164, Early: 0, Misses: 0
fe-> Hits: 3061, Late: 0, Early: 0, Misses: 0
ff-> Hits: 8, Late: 0, Early: 0, Misses: 0
100-> Hits: 749, Late: 681, Early: 0, Misses: 0
101-> Hits: 160, Late: 0, Early: 0, Misses: 0
102-> Hits: 1, Late: 0, Early: 0, Misses: 0
103-> Hits: 7, Late: 0, Early: 0, Misses: 0
104-> Hits: 1, Late: 0, Early: 0, Misses: 0
105-> Hits: 501, Late: 0, Early: 0, Misses: 0
106-> Hits: 115, Late: 0, Early: 0, Misses: 0
107-> Hits: 16, Late: 1, Early: 0, Misses: 0
108-> Hits: 367, Late: 0, Early: 0, Misses: 0
109-> Hits: 939, Late: 6, Early: 0, Misses: 0
10a-> Hits: 1803, Late: 0, Early: 0, Misses: 0
10b-> Hits: 5, Late: 0, Early: 0, Misses: 0
10c-> Hits: 1466, Late: 0, Early: 0, Misses: 0
10e-> Hits: 368, Late: 1, Early: 0, Misses: 0
10f-> Hits: 1724, Late: 52, Early: 0, Misses: 0
110-> Hits: 385, Late: 2, Early: 0, Misses: 0
111-> Hits: 6, Late: 0, Early: 0, Misses: 0
112-> Hits: 1094, Late: 0, Early: 0, Misses: 0
113-> Hits: 6448, Late: 320, Early: 0, Misses: 0
114-> Hits: 2632, Late: 0, Early: 0, Misses: 0
115-> Hits: 351, Late: 0, Early: 0, Misses: 0
117-> Hits: 1589, Late: 3, Early: 0, Misses: 0
118-> Hits: 11, Late: 1, Early: 0, Misses: 0
119-> Hits: 2923, Late: 13, Early: 0, Misses: 0
11a-> Hits: 619, Late: 8, Early: 0, Misses: 0
11b-> Hits: 103, Late: 0, Early: 0, Misses: 0
11c-> Hits: 343, Late: 0, Early: 0, Misses: 0
11d-> Hits: 756, Late: 0, Early: 0, Misses: 0
11e-> Hits: 2, Late: 0, Early: 0, Misses: 0
11f-> Hits: 391, Late: 0, Early: 0, Misses: 0
120-> Hits: 80, Late: 0, Early: 0, Misses: 0
121-> Hits: 1465, Late: 0, Early: 0, Misses: 0
123-> Hits: 1058, Late: 432, Early: 0, Misses: 0
124-> Hits: 3198, Late: 0, Early: 0, Misses: 0
125-> Hits: 203, Late: 10, Early: 0, Misses: 0
126-> Hits: 5, Late: 0, Early: 0, Misses: 0
127-> Hits: 1347, Late: 0, Early: 0, Misses: 0
128-> Hits: 4142, Late: 0, Early: 0, Misses: 0
129-> Hits: 31, Late: 65, Early: 0, Misses: 0
12a-> Hits: 57, Late: 0, Early: 0, Misses: 0
12b-> Hits: 41, Late: 0, Early: 0, Misses: 0
12c-> Hits: 3167, Late: 0, Early: 0, Misses: 0
12d-> Hits: 4755, Late: 626, Early: 0, Misses: 1
12e-> Hits: 353, Late: 0, Early: 0, Misses: 0
12f-> Hits: 1601, Late: 0, Early: 0, Misses: 0
130-> Hits: 214, Late: 0, Early: 0, Misses: 0
131-> Hits: 632, Late: 134, Early: 0, Misses: 0
132-> Hits: 70, Late: 0, Early: 0, Misses: 0
133-> Hits: 121, Late: 333, Early: 0, Misses: 0
134-> Hits: 28, Late: 0, Early: 0, Misses: 0
135-> Hits: 344, Late: 0, Early: 0, Misses: 0
136-> Hits: 2627, Late: 211, Early: 0, Misses: 15
138-> Hits: 54, Late: 0, Early: 0, Misses: 0
139-> Hits: 2, Late: 0, Early: 0, Misses: 0
13a-> Hits: 1822, Late: 128, Early: 0, Misses: 0
13b-> Hits: 1426, Late: 169, Early: 0, Misses: 0
13c-> Hits: 29, Late: 0, Early: 0, Misses: 0
13d-> Hits: 1512, Late: 0, Early: 0, Misses: 0
13e-> Hits: 2853, Late: 0, Early: 0, Misses: 1
13f-> Hits: 24, Late: 0, Early: 0, Misses: 0
140-> Hits: 98, Late: 3, Early: 0, Misses: 0
141-> Hits: 4573, Late: 56, Early: 0, Misses: 0
142-> Hits: 144, Late: 0, Early: 0, Misses: 0
143-> Hits: 785, Late: 0, Early: 0, Misses: 0
144-> Hits: 1125, Late: 3, Early: 0, Misses: 0
145-> Hits: 5338, Late: 22, Early: 0, Misses: 1
146-> Hits: 366, Late: 0, Early: 0, Misses: 0
147-> Hits: 4101, Late: 190, Early: 0, Misses: 0
148-> Hits: 1720, Late: 31, Early: 0, Misses: 13
149-> Hits: 968, Late: 0, Early: 0, Misses: 0
14a-> Hits: 3664, Late: 0, Early: 0, Misses: 0
14b-> Hits: 4, Late: 0, Early: 0, Misses: 0
14c-> Hits: 15, Late: 0, Early: 0, Misses: 0
14d-> Hits: 703, Late: 21, Early: 0, Misses: 0
14e-> Hits: 1105, Late: 0, Early: 0, Misses: 0
14f-> Hits: 430, Late: 18, Early: 0, Misses: 1
150-> Hits: 3257, Late: 0, Early: 0, Misses: 0
151-> Hits: 8858, Late: 5, Early: 0, Misses: 1
152-> Hits: 1503, Late: 0, Early: 0, Misses: 0
153-> Hits: 563, Late: 51, Early: 0, Misses: 0
154-> Hits: 218, Late: 0, Early: 0, Misses: 0
155-> Hits: 216, Late: 0, Early: 0, Misses: 0
157-> Hits: 23, Late: 55, Early: 0, Misses: 0
158-> Hits: 1141, Late: 0, Early: 0, Misses: 0
159-> Hits: 3407, Late: 0, Early: 0, Misses: 0
15a-> Hits: 128, Late: 1, Early: 0, Misses: 0
15b-> Hits: 264, Late: 342, Early: 0, Misses: 0
15c-> Hits: 341, Late: 0, Early: 0, Misses: 0
15d-> Hits: 142, Late: 0, Early: 0, Misses: 0
15e-> Hits: 962, Late: 5, Early: 0, Misses: 0
15f-> Hits: 71, Late: 43, Early: 0, Misses: 0
160-> Hits: 11195, Late: 5, Early: 0, Misses: 0
161-> Hits: 418, Late: 1, Early: 0, Misses: 0
162-> Hits: 94, Late: 0, Early: 0, Misses: 0
163-> Hits: 633, Late: 11, Early: 0, Misses: 0
164-> Hits: 134, Late: 0, Early: 0, Misses: 0
165-> Hits: 1248, Late: 144, Early: 0, Misses: 0
166-> Hits: 14, Late: 0, Early: 0, Misses: 0
167-> Hits: 9021, Late: 0, Early: 0, Misses: 0
168-> Hits: 2847, Late: 0, Early: 0, Misses: 1
169-> Hits: 3113, Late: 0, Early: 0, Misses: 0
16a-> Hits: 8323, Late: 608, Early: 0, Misses: 2
16c-> Hits: 957, Late: 0, Early: 0, Misses: 0
16d-> Hits: 1308, Late: 0, Early: 0, Misses: 0
16e-> Hits: 792, Late: 0, Early: 0, Misses: 0
16f-> Hits: 3805, Late: 1, Early: 0, Misses: 0
170-> Hits: 1233, Late: 10, Early: 0, Misses: 0
171-> Hits: 1116, Late: 47, Early: 0, Misses: 3
172-> Hits: 1055, Late: 0, Early: 0, Misses: 0
173-> Hits: 788, Late: 0, Early: 0, Misses: 0
174-> Hits: 247, Late: 0, Early: 0, Misses: 0
175-> Hits: 25, Late: 0, Early: 0, Misses: 0
176-> Hits: 24, Late: 0, Early: 0, Misses: 0
177-> Hits: 1256, Late: 0, Early: 0, Misses: 0
178-> Hits: 1283, Late: 0, Early: 0, Misses: 0
179-> Hits: 19, Late: 0, Early: 0, Misses: 0
17a-> Hits: 278, Late: 81, Early: 0, Misses: 0
17b-> Hits: 1021, Late: 0, Early: 0, Misses: 0
17c-> Hits: 1642, Late: 5, Early: 0, Misses: 0
17d-> Hits: 11, Late: 0, Early: 0, Misses: 0
17e-> Hits: 1486, Late: 0, Early: 0, Misses: 0
17f-> Hits: 1206, Late: 0, Early: 0, Misses: 0
180-> Hits: 3514, Late: 8, Early: 0, Misses: 0
181-> Hits: 1201, Late: 0, Early: 0, Misses: 0
182-> Hits: 846, Late: 10, Early: 0, Misses: 0
183-> Hits: 3891, Late: 0, Early: 0, Misses: 0
184-> Hits: 159, Late: 0, Early: 0, Misses: 0
185-> Hits: 1257, Late: 0, Early: 0, Misses: 0
186-> Hits: 215, Late: 0, Early: 0, Misses: 0
187-> Hits: 1492, Late: 0, Early: 0, Misses: 0
188-> Hits: 1201, Late: 0, Early: 0, Misses: 0
189-> Hits: 2232, Late: 62, Early: 0, Misses: 0
18a-> Hits: 125, Late: 0, Early: 0, Misses: 0
18b-> Hits: 734, Late: 219, Early: 0, Misses: 0
18c-> Hits: 467, Late: 0, Early: 0, Misses: 0
18d-> Hits: 242, Late: 24, Early: 0, Misses: 0
18e-> Hits: 68, Late: 0, Early: 0, Misses: 0
18f-> Hits: 530, Late: 56, Early: 0, Misses: 0
190-> Hits: 2869, Late: 66, Early: 0, Misses: 0
191-> Hits: 4953, Late: 85, Early: 0, Misses: 64
192-> Hits: 243, Late: 0, Early: 0, Misses: 0
193-> Hits: 175, Late: 0, Early: 0, Misses: 0
194-> Hits: 960, Late: 23, Early: 0, Misses: 0
195-> Hits: 3272, Late: 0, Early: 0, Misses: 0
196-> Hits: 356, Late: 0, Early: 0, Misses: 0
197-> Hits: 147, Late: 23, Early: 0, Misses: 1
198-> Hits: 174, Late: 0, Early: 0, Misses: 0
199-> Hits: 1588, Late: 34, Early: 0, Misses: 0
19a-> Hits: 2388, Late: 1, Early: 0, Misses: 0
19b-> Hits: 4, Late: 0, Early: 0, Misses: 0
19c-> Hits: 8034, Late: 3, Early: 0, Misses: 0
19d-> Hits: 9658, Late: 5, Early: 0, Misses: 0
19e-> Hits: 8087, Late: 0, Early: 0, Misses: 0
19f-> Hits: 210, Late: 93, Early: 0, Misses: 0
1a0-> Hits: 195, Late: 0, Early: 0, Misses: 0
1a1-> Hits: 75, Late: 0, Early: 0, Misses: 0
1a3-> Hits: 6, Late: 0, Early: 0, Misses: 0
1a4-> Hits: 4406, Late: 0, Early: 0, Misses: 0
1a5-> Hits: 496, Late: 0, Early: 0, Misses: 0
1a6-> Hits: 40, Late: 0, Early: 0, Misses: 0
1a7-> Hits: 2415, Late: 1, Early: 0, Misses: 0
1a8-> Hits: 3751, Late: 1, Early: 0, Misses: 0
1a9-> Hits: 1649, Late: 77, Early: 0, Misses: 13
1aa-> Hits: 1355, Late: 102, Early: 0, Misses: 0
1ab-> Hits: 2733, Late: 1, Early: 0, Misses: 0
1ac-> Hits: 4657, Late: 66, Early: 0, Misses: 0
1ad-> Hits: 3358, Late: 0, Early: 0, Misses: 0
1ae-> Hits: 0, Late: 1, Early: 0, Misses: 0
1af-> Hits: 59, Late: 9, Early: 0, Misses: 0
1b0-> Hits: 623, Late: 5, Early: 0, Misses: 0
1b1-> Hits: 1355, Late: 0, Early: 0, Misses: 0
1b2-> Hits: 45, Late: 15, Early: 0, Misses: 0
1b3-> Hits: 277, Late: 1, Early: 0, Misses: 0
1b5-> Hits: 641, Late: 0, Early: 0, Misses: 0
1b6-> Hits: 1033, Late: 0, Early: 0, Misses: 0
1b7-> Hits: 3404, Late: 14, Early: 0, Misses: 0
1b8-> Hits: 332, Late: 0, Early: 0, Misses: 0
1b9-> Hits: 685, Late: 0, Early: 0, Misses: 0
1ba-> Hits: 329, Late: 0, Early: 0, Misses: 0
1bb-> Hits: 1165, Late: 8, Early: 0, Misses: 0
1bc-> Hits: 322, Late: 0, Early: 0, Misses: 0
1bd-> Hits: 1181, Late: 0, Early: 0, Misses: 0
1be-> Hits: 1243, Late: 0, Early: 0, Misses: 0
1bf-> Hits: 772, Late: 0, Early: 0, Misses: 0
1c0-> Hits: 6168, Late: 58, Early: 0, Misses: 0
1c1-> Hits: 9986, Late: 0, Early: 0, Misses: 0
1c2-> Hits: 208, Late: 0, Early: 0, Misses: 0
1c3-> Hits: 7733, Late: 0, Early: 0, Misses: 0
1c4-> Hits: 1645, Late: 4, Early: 0, Misses: 0
1c5-> Hits: 5946, Late: 3, Early: 0, Misses: 0
1c6-> Hits: 788, Late: 19, Early: 0, Misses: 0
1c7-> Hits: 8040, Late: 0, Early: 0, Misses: 0
1c9-> Hits: 6113, Late: 0, Early: 0, Misses: 2
1ca-> Hits: 6114, Late: 43, Early: 0, Misses: 0
1cb-> Hits: 181, Late: 0, Early: 0, Misses: 0
1ce-> Hits: 14, Late: 5, Early: 0, Misses: 0
1d0-> Hits: 1587, Late: 0, Early: 0, Misses: 0
1d1-> Hits: 497, Late: 0, Early: 0, Misses: 0
1d2-> Hits: 1346, Late: 0, Early: 0, Misses: 0
1d3-> Hits: 6023, Late: 398, Early: 0, Misses: 11
1d4-> Hits: 2890, Late: 0, Early: 0, Misses: 1
1d5-> Hits: 6376, Late: 0, Early: 0, Misses: 0
1d6-> Hits: 1344, Late: 0, Early: 0, Misses: 0
1d7-> Hits: 8381, Late: 0, Early: 0, Misses: 0
1d9-> Hits: 6089, Late: 0, Early: 0, Misses: 0
1da-> Hits: 1182, Late: 0, Early: 0, Misses: 0
1db-> Hits: 6119, Late: 0, Early: 0, Misses: 0
1dc-> Hits: 38, Late: 0, Early: 0, Misses: 0
1dd-> Hits: 6179, Late: 0, Early: 0, Misses: 0
1de-> Hits: 6249, Late: 0, Early: 0, Misses: 0
1df-> Hits: 1790, Late: 57, Early: 0, Misses: 0
1e0-> Hits: 461, Late: 1, Early: 0, Misses: 0
1e1-> Hits: 8, Late: 0, Early: 0, Misses: 0
1e2-> Hits: 655, Late: 4, Early: 0, Misses: 1
1e3-> Hits: 59, Late: 0, Early: 0, Misses: 0
1e4-> Hits: 284, Late: 0, Early: 0, Misses: 0
1e5-> Hits: 274, Late: 0, Early: 0, Misses: 0
1e6-> Hits: 2446, Late: 12, Early: 0, Misses: 0
1e7-> Hits: 9, Late: 0, Early: 0, Misses: 0
1e8-> Hits: 68, Late: 0, Early: 0, Misses: 0
1e9-> Hits: 150, Late: 0, Early: 0, Misses: 0
1ea-> Hits: 2323, Late: 0, Early: 0, Misses: 0
1eb-> Hits: 155, Late: 6, Early: 0, Misses: 0
1ec-> Hits: 2, Late: 0, Early: 0, Misses: 0
1ed-> Hits: 208, Late: 0, Early: 0, Misses: 0
1ee-> Hits: 445, Late: 0, Early: 0, Misses: 0
1f0-> Hits: 1704, Late: 11, Early: 0, Misses: 0
1f1-> Hits: 552, Late: 0, Early: 0, Misses: 0
1f2-> Hits: 36, Late: 3, Early: 0, Misses: 0
1f3-> Hits: 50, Late: 0, Early: 0, Misses: 0
1f4-> Hits: 2, Late: 0, Early: 0, Misses: 0
1f5-> Hits: 1403, Late: 0, Early: 0, Misses: 0
1f6-> Hits: 616, Late: 0, Early: 0, Misses: 0
1f8-> Hits: 1411, Late: 0, Early: 0, Misses: 0
1f9-> Hits: 7022, Late: 108, Early: 0, Misses: 0
1fa-> Hits: 1696, Late: 1, Early: 0, Misses: 0
1fb-> Hits: 1497, Late: 0, Early: 0, Misses: 0
1fd-> Hits: 14, Late: 0, Early: 0, Misses: 0
1fe-> Hits: 119, Late: 4, Early: 0, Misses: 0
1ff-> Hits: 52, Late: 1, Early: 0, Misses: 0
200-> Hits: 22, Late: 0, Early: 0, Misses: 1
201-> Hits: 962, Late: 0, Early: 0, Misses: 7
202-> Hits: 1577, Late: 37, Early: 0, Misses: 0
204-> Hits: 2048, Late: 0, Early: 0, Misses: 0
205-> Hits: 47, Late: 0, Early: 0, Misses: 0
206-> Hits: 37, Late: 0, Early: 0, Misses: 0
207-> Hits: 509, Late: 1, Early: 0, Misses: 0
208-> Hits: 2471, Late: 1, Early: 0, Misses: 0
209-> Hits: 4, Late: 0, Early: 0, Misses: 0
20a-> Hits: 4, Late: 6, Early: 0, Misses: 0
20b-> Hits: 525, Late: 104, Early: 0, Misses: 1
20c-> Hits: 3769, Late: 150, Early: 0, Misses: 0
20d-> Hits: 1, Late: 0, Early: 0, Misses: 0
20e-> Hits: 725, Late: 102, Early: 0, Misses: 0
20f-> Hits: 20, Late: 0, Early: 0, Misses: 0
210-> Hits: 2967, Late: 2, Early: 0, Misses: 0
211-> Hits: 5056, Late: 0, Early: 0, Misses: 0
212-> Hits: 371, Late: 0, Early: 0, Misses: 0
213-> Hits: 223, Late: 1, Early: 0, Misses: 0
214-> Hits: 7, Late: 0, Early: 0, Misses: 0
215-> Hits: 29, Late: 0, Early: 0, Misses: 0
216-> Hits: 33, Late: 3, Early: 0, Misses: 0
217-> Hits: 5178, Late: 180, Early: 0, Misses: 68
218-> Hits: 142, Late: 0, Early: 0, Misses: 0
219-> Hits: 101, Late: 0, Early: 0, Misses: 0
21a-> Hits: 4322, Late: 16, Early: 0, Misses: 0
21b-> Hits: 2194, Late: 21, Early: 0, Misses: 26
21c-> Hits: 1462, Late: 0, Early: 0, Misses: 0
21d-> Hits: 217, Late: 0, Early: 0, Misses: 0
21e-> Hits: 2832, Late: 1, Early: 0, Misses: 0
21f-> Hits: 2636, Late: 0, Early: 0, Misses: 0
220-> Hits: 176, Late: 2, Early: 0, Misses: 0
221-> Hits: 6105, Late: 231, Early: 0, Misses: 0
222-> Hits: 2817, Late: 0, Early: 0, Misses: 0
223-> Hits: 2716, Late: 1, Early: 0, Misses: 0
224-> Hits: 309, Late: 2, Early: 0, Misses: 0
225-> Hits: 2631, Late: 0, Early: 0, Misses: 0
226-> Hits: 100, Late: 0, Early: 0, Misses: 0
227-> Hits: 2851, Late: 6, Early: 0, Misses: 0
228-> Hits: 3027, Late: 0, Early: 0, Misses: 0
229-> Hits: 3114, Late: 1, Early: 0, Misses: 0
22a-> Hits: 109, Late: 2, Early: 0, Misses: 0
22b-> Hits: 4, Late: 0, Early: 0, Misses: 0
22c-> Hits: 38, Late: 0, Early: 0, Misses: 0
22d-> Hits: 260, Late: 0, Early: 0, Misses: 0
22e-> Hits: 57, Late: 3, Early: 0, Misses: 0
22f-> Hits: 29, Late: 0, Early: 0, Misses: 0
230-> Hits: 62, Late: 0, Early: 0, Misses: 0
231-> Hits: 3, Late: 0, Early: 0, Misses: 0
232-> Hits: 1530, Late: 8, Early: 0, Misses: 7
233-> Hits: 3844, Late: 0, Early: 0, Misses: 0
234-> Hits: 112, Late: 0, Early: 0, Misses: 0
235-> Hits: 351, Late: 0, Early: 0, Misses: 0
236-> Hits: 4, Late: 0, Early: 0, Misses: 0
237-> Hits: 617, Late: 1, Early: 0, Misses: 0
238-> Hits: 733, Late: 0, Early: 0, Misses: 0
239-> Hits: 196, Late: 0, Early: 0, Misses: 0
23a-> Hits: 104, Late: 8, Early: 0, Misses: 0
23b-> Hits: 193, Late: 16, Early: 0, Misses: 0
23c-> Hits: 36, Late: 8, Early: 0, Misses: 0
23d-> Hits: 91, Late: 1, Early: 0, Misses: 0
23e-> Hits: 81, Late: 0, Early: 0, Misses: 0
23f-> Hits: 5112, Late: 638, Early: 0, Misses: 1
240-> Hits: 474, Late: 94, Early: 0, Misses: 0
241-> Hits: 6, Late: 0, Early: 0, Misses: 0
242-> Hits: 7885, Late: 0, Early: 0, Misses: 0
243-> Hits: 8217, Late: 127, Early: 0, Misses: 0
244-> Hits: 2598, Late: 16, Early: 0, Misses: 0
246-> Hits: 201, Late: 109, Early: 0, Misses: 0
247-> Hits: 333, Late: 22, Early: 0, Misses: 0
248-> Hits: 6, Late: 0, Early: 0, Misses: 0
249-> Hits: 263, Late: 0, Early: 0, Misses: 0
24a-> Hits: 23, Late: 0, Early: 0, Misses: 0
24b-> Hits: 19, Late: 0, Early: 0, Misses: 0
24c-> Hits: 3, Late: 0, Early: 0, Misses: 0
24d-> Hits: 422, Late: 1041, Early: 0, Misses: 0
24e-> Hits: 1, Late: 0, Early: 0, Misses: 0
24f-> Hits: 385, Late: 3, Early: 0, Misses: 0
250-> Hits: 4, Late: 0, Early: 0, Misses: 0
251-> Hits: 480, Late: 992, Early: 0, Misses: 0
252-> Hits: 2598, Late: 31, Early: 0, Misses: 0
253-> Hits: 23, Late: 0, Early: 0, Misses: 0
254-> Hits: 58, Late: 9, Early: 0, Misses: 0
255-> Hits: 92, Late: 0, Early: 0, Misses: 0
256-> Hits: 264, Late: 0, Early: 0, Misses: 0
257-> Hits: 60, Late: 2, Early: 0, Misses: 0
258-> Hits: 2171, Late: 7, Early: 0, Misses: 0
259-> Hits: 2130, Late: 0, Early: 0, Misses: 0
25a-> Hits: 52, Late: 4, Early: 0, Misses: 0
25b-> Hits: 6194, Late: 0, Early: 0, Misses: 0
25c-> Hits: 1199, Late: 363, Early: 0, Misses: 0
25d-> Hits: 2084, Late: 0, Early: 0, Misses: 0
25f-> Hits: 2135, Late: 0, Early: 0, Misses: 0
260-> Hits: 6199, Late: 5, Early: 0, Misses: 0
261-> Hits: 458, Late: 26, Early: 0, Misses: 4
262-> Hits: 4143, Late: 0, Early: 0, Misses: 0
264-> Hits: 1, Late: 0, Early: 0, Misses: 0
266-> Hits: 402, Late: 0, Early: 0, Misses: 0
267-> Hits: 4, Late: 1, Early: 0, Misses: 0
269-> Hits: 56, Late: 0, Early: 0, Misses: 0
26a-> Hits: 3983, Late: 0, Early: 0, Misses: 0
26b-> Hits: 93, Late: 0, Early: 0, Misses: 0
26c-> Hits: 25, Late: 0, Early: 0, Misses: 0
26e-> Hits: 257, Late: 0, Early: 0, Misses: 0
26f-> Hits: 1, Late: 0, Early: 0, Misses: 0
270-> Hits: 3, Late: 0, Early: 0, Misses: 0
271-> Hits: 3852, Late: 174, Early: 0, Misses: 0
272-> Hits: 578, Late: 888, Early: 0, Misses: 0
273-> Hits: 472, Late: 0, Early: 0, Misses: 0
275-> Hits: 1118, Late: 576, Early: 0, Misses: 0
276-> Hits: 1, Late: 0, Early: 0, Misses: 0
277-> Hits: 349, Late: 0, Early: 0, Misses: 0
279-> Hits: 134, Late: 3, Early: 0, Misses: 0
27a-> Hits: 6, Late: 0, Early: 0, Misses: 0
27c-> Hits: 31, Late: 1, Early: 0, Misses: 0
27d-> Hits: 226, Late: 0, Early: 0, Misses: 0
27e-> Hits: 425, Late: 10, Early: 0, Misses: 4
27f-> Hits: 45, Late: 0, Early: 0, Misses: 0
280-> Hits: 200898, Late: 1, Early: 0, Misses: 1
281-> Hits: 94, Late: 0, Early: 0, Misses: 0
282-> Hits: 33, Late: 0, Early: 0, Misses: 0
284-> Hits: 5599, Late: 1, Early: 0, Misses: 3
285-> Hits: 4, Late: 0, Early: 0, Misses: 0
287-> Hits: 127210, Late: 1, Early: 0, Misses: 0
289-> Hits: 11, Late: 2, Early: 0, Misses: 0
28a-> Hits: 308, Late: 0, Early: 0, Misses: 0
28c-> Hits: 399, Late: 29, Early: 0, Misses: 11
28d-> Hits: 235, Late: 0, Early: 0, Misses: 0
28e-> Hits: 24, Late: 0, Early: 0, Misses: 0
290-> Hits: 12, Late: 0, Early: 0, Misses: 0
291-> Hits: 296, Late: 0, Early: 0, Misses: 0
293-> Hits: 67, Late: 2, Early: 0, Misses: 0
296-> Hits: 5, Late: 2, Early: 0, Misses: 0
297-> Hits: 269, Late: 1, Early: 0, Misses: 0
299-> Hits: 1, Late: 0, Early: 0, Misses: 0
29a-> Hits: 9, Late: 0, Early: 0, Misses: 0
29b-> Hits: 21, Late: 0, Early: 0, Misses: 0
29c-> Hits: 12, Late: 0, Early: 0, Misses: 0
29d-> Hits: 1461, Late: 1, Early: 0, Misses: 7
29e-> Hits: 23893, Late: 0, Early: 0, Misses: 0
29f-> Hits: 61220, Late: 0, Early: 0, Misses: 1
2a0-> Hits: 334, Late: 0, Early: 0, Misses: 0
2a1-> Hits: 83164, Late: 0, Early: 0, Misses: 0
2a2-> Hits: 50, Late: 0, Early: 0, Misses: 0
2a3-> Hits: 86381, Late: 0, Early: 0, Misses: 0
2a4-> Hits: 2934, Late: 50, Early: 0, Misses: 0
2a5-> Hits: 91090, Late: 0, Early: 0, Misses: 0
2a6-> Hits: 127245, Late: 2, Early: 0, Misses: 3
2a7-> Hits: 96999, Late: 0, Early: 0, Misses: 13
2a8-> Hits: 104149, Late: 25, Early: 0, Misses: 0
2a9-> Hits: 639, Late: 31, Early: 0, Misses: 0
2aa-> Hits: 85, Late: 0, Early: 0, Misses: 0
2ab-> Hits: 1486, Late: 0, Early: 0, Misses: 0
2ac-> Hits: 1461, Late: 0, Early: 0, Misses: 0
2ad-> Hits: 361, Late: 0, Early: 0, Misses: 0
2ae-> Hits: 90, Late: 0, Early: 0, Misses: 0
2b0-> Hits: 133, Late: 4, Early: 0, Misses: 0
2b1-> Hits: 43, Late: 0, Early: 0, Misses: 0
2b2-> Hits: 1234, Late: 263, Early: 0, Misses: 0
2b3-> Hits: 585, Late: 0, Early: 0, Misses: 0
2b4-> Hits: 789, Late: 1, Early: 0, Misses: 0
2b5-> Hits: 3945, Late: 0, Early: 0, Misses: 0
2b7-> Hits: 4721, Late: 0, Early: 0, Misses: 0
2b8-> Hits: 3267, Late: 0, Early: 0, Misses: 0
2b9-> Hits: 4, Late: 0, Early: 0, Misses: 0
2ba-> Hits: 2933, Late: 0, Early: 0, Misses: 0
2bb-> Hits: 161, Late: 0, Early: 0, Misses: 0
2bc-> Hits: 7762, Late: 81, Early: 0, Misses: 0
2bd-> Hits: 11, Late: 0, Early: 0, Misses: 0
2be-> Hits: 3117, Late: 0, Early: 0, Misses: 0
2bf-> Hits: 425, Late: 2, Early: 0, Misses: 0
2c0-> Hits: 2696, Late: 0, Early: 0, Misses: 0
2c1-> Hits: 2658, Late: 0, Early: 0, Misses: 0
2c2-> Hits: 2, Late: 0, Early: 0, Misses: 0
2c3-> Hits: 247, Late: 1, Early: 0, Misses: 0
2c4-> Hits: 242, Late: 0, Early: 0, Misses: 0
2c5-> Hits: 12, Late: 2, Early: 0, Misses: 0
2c6-> Hits: 600, Late: 0, Early: 0, Misses: 0
2c7-> Hits: 2, Late: 0, Early: 0, Misses: 0
2c8-> Hits: 90, Late: 0, Early: 0, Misses: 0
2c9-> Hits: 356, Late: 5, Early: 0, Misses: 0
2ca-> Hits: 7, Late: 0, Early: 0, Misses: 0
2cb-> Hits: 51, Late: 0, Early: 0, Misses: 0
2cc-> Hits: 19, Late: 0, Early: 0, Misses: 0
2cd-> Hits: 157, Late: 12, Early: 0, Misses: 0
2ce-> Hits: 4, Late: 0, Early: 0, Misses: 0
2cf-> Hits: 8, Late: 0, Early: 0, Misses: 0
2d0-> Hits: 11164, Late: 60, Early: 0, Misses: 0
2d1-> Hits: 5, Late: 0, Early: 0, Misses: 0
2d2-> Hits: 11, Late: 0, Early: 0, Misses: 0
2d3-> Hits: 65, Late: 0, Early: 0, Misses: 0
2d4-> Hits: 311, Late: 0, Early: 0, Misses: 0
2d5-> Hits: 7515, Late: 38, Early: 0, Misses: 0
2d6-> Hits: 123, Late: 2, Early: 0, Misses: 0
2d7-> Hits: 6, Late: 0, Early: 0, Misses: 0
2d8-> Hits: 138, Late: 0, Early: 0, Misses: 0
2d9-> Hits: 315, Late: 0, Early: 0, Misses: 0
2da-> Hits: 1636, Late: 0, Early: 0, Misses: 0
2db-> Hits: 70, Late: 0, Early: 0, Misses: 0
2dc-> Hits: 117, Late: 0, Early: 0, Misses: 13
2dd-> Hits: 36, Late: 1, Early: 0, Misses: 0
2de-> Hits: 55082, Late: 109, Early: 0, Misses: 0
2df-> Hits: 116, Late: 12, Early: 0, Misses: 0
2e0-> Hits: 13, Late: 0, Early: 0, Misses: 0
2e1-> Hits: 720, Late: 843, Early: 0, Misses: 0
2e2-> Hits: 266, Late: 0, Early: 0, Misses: 0
2e3-> Hits: 329, Late: 0, Early: 0, Misses: 13
2e4-> Hits: 2, Late: 0, Early: 0, Misses: 0
2e5-> Hits: 9665, Late: 62, Early: 0, Misses: 0
2e6-> Hits: 284, Late: 0, Early: 0, Misses: 0
2e7-> Hits: 1936, Late: 0, Early: 0, Misses: 0
2e8-> Hits: 1649, Late: 0, Early: 0, Misses: 0
2e9-> Hits: 12, Late: 0, Early: 0, Misses: 0
2ea-> Hits: 278, Late: 0, Early: 0, Misses: 0
2eb-> Hits: 14, Late: 4, Early: 0, Misses: 0
2ec-> Hits: 2, Late: 0, Early: 0, Misses: 0
2ef-> Hits: 1840, Late: 10, Early: 0, Misses: 0
2f0-> Hits: 296, Late: 1, Early: 0, Misses: 0
2f2-> Hits: 30, Late: 70, Early: 0, Misses: 0
2f3-> Hits: 83102, Late: 1, Early: 0, Misses: 0
2f4-> Hits: 2528, Late: 0, Early: 0, Misses: 0
2f5-> Hits: 3, Late: 10, Early: 0, Misses: 0
2f6-> Hits: 51, Late: 0, Early: 0, Misses: 0
2f7-> Hits: 190, Late: 0, Early: 0, Misses: 0
2f8-> Hits: 16, Late: 0, Early: 0, Misses: 0
2f9-> Hits: 171, Late: 1, Early: 0, Misses: 0
2fa-> Hits: 13, Late: 0, Early: 0, Misses: 0
2fc-> Hits: 108, Late: 73, Early: 0, Misses: 0
2fd-> Hits: 46, Late: 0, Early: 0, Misses: 0
2fe-> Hits: 9, Late: 0, Early: 0, Misses: 0
2ff-> Hits: 225, Late: 21, Early: 0, Misses: 0
300-> Hits: 31, Late: 0, Early: 0, Misses: 0
301-> Hits: 383, Late: 0, Early: 0, Misses: 4
302-> Hits: 344, Late: 0, Early: 0, Misses: 0
303-> Hits: 361, Late: 0, Early: 0, Misses: 0
304-> Hits: 724, Late: 0, Early: 0, Misses: 0
305-> Hits: 10, Late: 3, Early: 0, Misses: 0
306-> Hits: 2976, Late: 0, Early: 0, Misses: 0
307-> Hits: 2964, Late: 0, Early: 0, Misses: 0
308-> Hits: 1164, Late: 31, Early: 0, Misses: 0
309-> Hits: 2634, Late: 0, Early: 0, Misses: 0
30a-> Hits: 455, Late: 25, Early: 0, Misses: 0
30b-> Hits: 5071, Late: 534, Early: 0, Misses: 0
30c-> Hits: 104, Late: 0, Early: 0, Misses: 0
30d-> Hits: 2636, Late: 0, Early: 0, Misses: 0
30e-> Hits: 6, Late: 0, Early: 0, Misses: 0
30f-> Hits: 2973, Late: 0, Early: 0, Misses: 0
310-> Hits: 2809, Late: 2, Early: 0, Misses: 1
311-> Hits: 38, Late: 0, Early: 0, Misses: 0
312-> Hits: 351, Late: 0, Early: 0, Misses: 0
313-> Hits: 500, Late: 5, Early: 0, Misses: 0
314-> Hits: 1786, Late: 4, Early: 0, Misses: 0
315-> Hits: 390, Late: 0, Early: 0, Misses: 0
316-> Hits: 496, Late: 0, Early: 0, Misses: 0
317-> Hits: 2007, Late: 125, Early: 0, Misses: 0
318-> Hits: 1712, Late: 0, Early: 0, Misses: 0
319-> Hits: 355, Late: 0, Early: 0, Misses: 0
31a-> Hits: 1, Late: 0, Early: 0, Misses: 0
31b-> Hits: 349, Late: 0, Early: 0, Misses: 0
31c-> Hits: 399, Late: 0, Early: 0, Misses: 0
31d-> Hits: 1707, Late: 0, Early: 0, Misses: 0
31e-> Hits: 40, Late: 0, Early: 0, Misses: 0
31f-> Hits: 50, Late: 0, Early: 0, Misses: 0
320-> Hits: 326, Late: 1, Early: 0, Misses: 0
321-> Hits: 319, Late: 16, Early: 0, Misses: 0
322-> Hits: 141, Late: 0, Early: 0, Misses: 0
323-> Hits: 50, Late: 0, Early: 0, Misses: 0
324-> Hits: 93, Late: 1, Early: 0, Misses: 0
325-> Hits: 252, Late: 5, Early: 0, Misses: 0
326-> Hits: 121, Late: 0, Early: 0, Misses: 0
327-> Hits: 92, Late: 0, Early: 0, Misses: 0
329-> Hits: 140, Late: 16, Early: 0, Misses: 0
32a-> Hits: 1644, Late: 0, Early: 0, Misses: 0
32c-> Hits: 231, Late: 0, Early: 0, Misses: 0
32d-> Hits: 1877, Late: 23, Early: 0, Misses: 0
32e-> Hits: 133, Late: 0, Early: 0, Misses: 0
330-> Hits: 60027, Late: 37151, Early: 0, Misses: 71
331-> Hits: 1923, Late: 1, Early: 0, Misses: 0
332-> Hits: 630, Late: 0, Early: 0, Misses: 0
334-> Hits: 26, Late: 0, Early: 0, Misses: 0
335-> Hits: 8, Late: 0, Early: 0, Misses: 0
336-> Hits: 10, Late: 0, Early: 0, Misses: 0
337-> Hits: 89, Late: 0, Early: 0, Misses: 0
339-> Hits: 520, Late: 51, Early: 0, Misses: 0
33a-> Hits: 167, Late: 13, Early: 0, Misses: 0
33b-> Hits: 287, Late: 1, Early: 0, Misses: 0
33c-> Hits: 2301, Late: 0, Early: 0, Misses: 0
33d-> Hits: 324, Late: 0, Early: 0, Misses: 0
33e-> Hits: 111, Late: 1, Early: 0, Misses: 0
340-> Hits: 63, Late: 0, Early: 0, Misses: 0
341-> Hits: 2201, Late: 0, Early: 0, Misses: 0
342-> Hits: 2403, Late: 5, Early: 0, Misses: 0
343-> Hits: 2269, Late: 0, Early: 0, Misses: 0
344-> Hits: 3154, Late: 7, Early: 0, Misses: 0
345-> Hits: 215, Late: 2, Early: 0, Misses: 0
346-> Hits: 2804, Late: 0, Early: 0, Misses: 0
347-> Hits: 28, Late: 0, Early: 0, Misses: 0
348-> Hits: 2623, Late: 86, Early: 0, Misses: 0
349-> Hits: 290, Late: 58, Early: 0, Misses: 1
34a-> Hits: 2324, Late: 0, Early: 0, Misses: 0
34b-> Hits: 2352, Late: 0, Early: 0, Misses: 0
34c-> Hits: 108, Late: 9, Early: 0, Misses: 0
34d-> Hits: 81, Late: 0, Early: 0, Misses: 0
34e-> Hits: 101, Late: 0, Early: 0, Misses: 0
34f-> Hits: 22, Late: 0, Early: 0, Misses: 0
350-> Hits: 204, Late: 47, Early: 0, Misses: 0
351-> Hits: 146, Late: 0, Early: 0, Misses: 0
352-> Hits: 123, Late: 0, Early: 0, Misses: 0
353-> Hits: 1035, Late: 1, Early: 0, Misses: 11
354-> Hits: 444, Late: 22, Early: 0, Misses: 0
355-> Hits: 11, Late: 0, Early: 0, Misses: 0
356-> Hits: 410, Late: 0, Early: 0, Misses: 0
357-> Hits: 313, Late: 0, Early: 0, Misses: 0
358-> Hits: 732, Late: 0, Early: 0, Misses: 0
359-> Hits: 665, Late: 0, Early: 0, Misses: 0
35a-> Hits: 663, Late: 0, Early: 0, Misses: 0
35b-> Hits: 329, Late: 15, Early: 0, Misses: 0
35c-> Hits: 378, Late: 1, Early: 0, Misses: 0
35d-> Hits: 385, Late: 0, Early: 0, Misses: 0
35e-> Hits: 2618, Late: 19, Early: 0, Misses: 2
35f-> Hits: 2, Late: 0, Early: 0, Misses: 0
360-> Hits: 79955, Late: 0, Early: 0, Misses: 0
361-> Hits: 0, Late: 2, Early: 0, Misses: 0
362-> Hits: 1676, Late: 157, Early: 0, Misses: 0
363-> Hits: 30, Late: 80, Early: 0, Misses: 0
364-> Hits: 830, Late: 4, Early: 0, Misses: 1
365-> Hits: 122055, Late: 0, Early: 0, Misses: 0
367-> Hits: 1865, Late: 0, Early: 0, Misses: 0
369-> Hits: 4942, Late: 2, Early: 0, Misses: 0
36a-> Hits: 53, Late: 3, Early: 0, Misses: 0
36b-> Hits: 1489, Late: 0, Early: 0, Misses: 0
36c-> Hits: 37, Late: 0, Early: 0, Misses: 0
36d-> Hits: 1503, Late: 0, Early: 0, Misses: 0
36e-> Hits: 1508, Late: 1, Early: 0, Misses: 0
36f-> Hits: 686, Late: 0, Early: 0, Misses: 0
370-> Hits: 1520, Late: 9, Early: 0, Misses: 0
372-> Hits: 129, Late: 0, Early: 0, Misses: 0
373-> Hits: 292, Late: 0, Early: 0, Misses: 0
374-> Hits: 38, Late: 0, Early: 0, Misses: 0
375-> Hits: 21, Late: 0, Early: 0, Misses: 0
376-> Hits: 44, Late: 0, Early: 0, Misses: 0
377-> Hits: 1583, Late: 10, Early: 0, Misses: 0
378-> Hits: 179, Late: 1, Early: 0, Misses: 0
379-> Hits: 45, Late: 55, Early: 0, Misses: 0
37a-> Hits: 72, Late: 0, Early: 0, Misses: 0
37b-> Hits: 31, Late: 6, Early: 0, Misses: 0
37c-> Hits: 1207, Late: 0, Early: 0, Misses: 0
37d-> Hits: 358, Late: 0, Early: 0, Misses: 0
37f-> Hits: 2236, Late: 0, Early: 0, Misses: 0
380-> Hits: 4, Late: 0, Early: 0, Misses: 0
381-> Hits: 431, Late: 21, Early: 0, Misses: 0
382-> Hits: 8, Late: 0, Early: 0, Misses: 0
383-> Hits: 140, Late: 11, Early: 0, Misses: 0
384-> Hits: 2677, Late: 1, Early: 0, Misses: 0
385-> Hits: 12, Late: 1, Early: 0, Misses: 0
386-> Hits: 256, Late: 16, Early: 0, Misses: 0
387-> Hits: 8643, Late: 0, Early: 0, Misses: 0
388-> Hits: 75, Late: 0, Early: 0, Misses: 0
389-> Hits: 28, Late: 0, Early: 0, Misses: 0
38a-> Hits: 1644, Late: 0, Early: 0, Misses: 0
38b-> Hits: 8453, Late: 24, Early: 0, Misses: 0
38c-> Hits: 3725, Late: 0, Early: 0, Misses: 0
38d-> Hits: 15, Late: 0, Early: 0, Misses: 0
38e-> Hits: 1033, Late: 272, Early: 0, Misses: 0
38f-> Hits: 545, Late: 1, Early: 0, Misses: 0
390-> Hits: 129, Late: 2, Early: 0, Misses: 0
391-> Hits: 360, Late: 22, Early: 0, Misses: 0
392-> Hits: 82, Late: 2, Early: 0, Misses: 0
393-> Hits: 99, Late: 7, Early: 0, Misses: 0
394-> Hits: 573, Late: 0, Early: 0, Misses: 0
395-> Hits: 3741, Late: 0, Early: 0, Misses: 0
396-> Hits: 1856, Late: 0, Early: 0, Misses: 0
397-> Hits: 87, Late: 0, Early: 0, Misses: 0
398-> Hits: 1638, Late: 0, Early: 0, Misses: 0
399-> Hits: 97, Late: 0, Early: 0, Misses: 0
39a-> Hits: 1937, Late: 0, Early: 0, Misses: 0
39b-> Hits: 78, Late: 6, Early: 0, Misses: 0
39c-> Hits: 1655, Late: 2, Early: 0, Misses: 0
39d-> Hits: 87, Late: 0, Early: 0, Misses: 0
39e-> Hits: 1233, Late: 8, Early: 0, Misses: 0
39f-> Hits: 44, Late: 0, Early: 0, Misses: 0
3a0-> Hits: 4483, Late: 239, Early: 0, Misses: 3
3a1-> Hits: 2, Late: 0, Early: 0, Misses: 0
3a3-> Hits: 37, Late: 0, Early: 0, Misses: 0
3a4-> Hits: 45, Late: 0, Early: 0, Misses: 0
3a6-> Hits: 284, Late: 62, Early: 0, Misses: 0
3a7-> Hits: 7, Late: 0, Early: 0, Misses: 0
3a8-> Hits: 1473, Late: 0, Early: 0, Misses: 0
3a9-> Hits: 898, Late: 0, Early: 0, Misses: 0
3aa-> Hits: 140, Late: 0, Early: 0, Misses: 0
3ab-> Hits: 1540, Late: 0, Early: 0, Misses: 0
3ac-> Hits: 147, Late: 0, Early: 0, Misses: 0
3ad-> Hits: 254, Late: 0, Early: 0, Misses: 0
3ae-> Hits: 145, Late: 2, Early: 0, Misses: 0
3af-> Hits: 6, Late: 0, Early: 0, Misses: 0
3b0-> Hits: 204, Late: 16, Early: 0, Misses: 0
3b1-> Hits: 18, Late: 0, Early: 0, Misses: 0
3b2-> Hits: 377, Late: 2, Early: 0, Misses: 0
3b3-> Hits: 379, Late: 1, Early: 0, Misses: 0
3b4-> Hits: 2660, Late: 2, Early: 0, Misses: 11
3b5-> Hits: 108, Late: 1, Early: 0, Misses: 0
3b6-> Hits: 77, Late: 0, Early: 0, Misses: 0
3b7-> Hits: 6, Late: 0, Early: 0, Misses: 0
3b9-> Hits: 3, Late: 0, Early: 0, Misses: 0
3ba-> Hits: 4912, Late: 0, Early: 0, Misses: 0
3bb-> Hits: 337, Late: 0, Early: 0, Misses: 0
3bc-> Hits: 163, Late: 0, Early: 0, Misses: 0
3bd-> Hits: 805, Late: 1, Early: 0, Misses: 0
3be-> Hits: 164, Late: 0, Early: 0, Misses: 0
3bf-> Hits: 156, Late: 0, Early: 0, Misses: 0
3c0-> Hits: 58, Late: 0, Early: 0, Misses: 0
3c1-> Hits: 62039, Late: 0, Early: 0, Misses: 0
3c2-> Hits: 2072, Late: 3, Early: 0, Misses: 0
3c3-> Hits: 2984, Late: 562, Early: 0, Misses: 0
3c4-> Hits: 8448, Late: 13, Early: 0, Misses: 0
3c5-> Hits: 74, Late: 0, Early: 0, Misses: 0
3c6-> Hits: 1486, Late: 1, Early: 0, Misses: 0
3c7-> Hits: 1383, Late: 0, Early: 0, Misses: 0
3c8-> Hits: 1123, Late: 0, Early: 0, Misses: 0
3c9-> Hits: 152, Late: 5, Early: 0, Misses: 0
3ca-> Hits: 10, Late: 0, Early: 0, Misses: 0
3cb-> Hits: 3629, Late: 218, Early: 0, Misses: 12
3cc-> Hits: 3092, Late: 0, Early: 0, Misses: 0
3cd-> Hits: 1708, Late: 1, Early: 0, Misses: 2
3ce-> Hits: 2673, Late: 9, Early: 0, Misses: 0
3cf-> Hits: 7, Late: 0, Early: 0, Misses: 0
3d0-> Hits: 15, Late: 0, Early: 0, Misses: 0
3d1-> Hits: 2829, Late: 43, Early: 0, Misses: 0
3d3-> Hits: 225, Late: 3, Early: 0, Misses: 0
3d4-> Hits: 1506, Late: 48, Early: 0, Misses: 0
3d5-> Hits: 3622, Late: 497, Early: 0, Misses: 4
3d6-> Hits: 25, Late: 0, Early: 0, Misses: 0
3d7-> Hits: 24, Late: 0, Early: 0, Misses: 0
3d9-> Hits: 23810, Late: 0, Early: 0, Misses: 0
3da-> Hits: 3309, Late: 0, Early: 0, Misses: 0
3db-> Hits: 2604, Late: 62, Early: 0, Misses: 0
3dc-> Hits: 1736, Late: 0, Early: 0, Misses: 0
3dd-> Hits: 997, Late: 0, Early: 0, Misses: 0
3de-> Hits: 308, Late: 1, Early: 0, Misses: 0
3df-> Hits: 1595, Late: 1156, Early: 0, Misses: 0
3e0-> Hits: 466, Late: 0, Early: 0, Misses: 0
3e1-> Hits: 24616, Late: 0, Early: 0, Misses: 0
3e2-> Hits: 240, Late: 0, Early: 0, Misses: 0
3e4-> Hits: 283, Late: 0, Early: 0, Misses: 0
3e5-> Hits: 85236, Late: 0, Early: 0, Misses: 0
3e6-> Hits: 1550, Late: 0, Early: 0, Misses: 0
3e7-> Hits: 1922, Late: 72, Early: 0, Misses: 1
3e8-> Hits: 1409, Late: 220, Early: 0, Misses: 0
3e9-> Hits: 3576, Late: 0, Early: 0, Misses: 0
3ea-> Hits: 3, Late: 0, Early: 0, Misses: 0
3eb-> Hits: 1, Late: 0, Early: 0, Misses: 0
3ec-> Hits: 9358, Late: 189, Early: 0, Misses: 0
3ee-> Hits: 290, Late: 0, Early: 0, Misses: 0
3ef-> Hits: 29385, Late: 39, Early: 0, Misses: 0
3f0-> Hits: 6900, Late: 97, Early: 0, Misses: 0
3f1-> Hits: 191, Late: 6, Early: 0, Misses: 0
3f2-> Hits: 544, Late: 1, Early: 0, Misses: 0
3f3-> Hits: 89, Late: 13, Early: 0, Misses: 1
3f4-> Hits: 1779, Late: 0, Early: 0, Misses: 0
3f5-> Hits: 227, Late: 0, Early: 0, Misses: 0
3f6-> Hits: 46, Late: 0, Early: 0, Misses: 0
3f7-> Hits: 51152, Late: 1, Early: 0, Misses: 0
3f9-> Hits: 62896, Late: 0, Early: 0, Misses: 0
3fa-> Hits: 32, Late: 0, Early: 0, Misses: 0
3fb-> Hits: 61, Late: 2, Early: 0, Misses: 9
3fc-> Hits: 1387, Late: 35, Early: 0, Misses: 0
3fd-> Hits: 109, Late: 6, Early: 0, Misses: 0
3fe-> Hits: 1507, Late: 0, Early: 0, Misses: 0
3ff-> Hits: 40671, Late: 13, Early: 0, Misses: 0
400-> Hits: 1096, Late: 3, Early: 0, Misses: 0
401-> Hits: 1, Late: 0, Early: 0, Misses: 0
402-> Hits: 95, Late: 0, Early: 0, Misses: 0
403-> Hits: 28, Late: 0, Early: 0, Misses: 0
404-> Hits: 319, Late: 12, Early: 0, Misses: 1
405-> Hits: 2938, Late: 16, Early: 0, Misses: 0
406-> Hits: 2, Late: 0, Early: 0, Misses: 0
407-> Hits: 3485, Late: 8, Early: 0, Misses: 0
408-> Hits: 1487, Late: 0, Early: 0, Misses: 0
409-> Hits: 1497, Late: 0, Early: 0, Misses: 0
40a-> Hits: 9, Late: 0, Early: 0, Misses: 0
40b-> Hits: 1486, Late: 0, Early: 0, Misses: 0
40c-> Hits: 2025, Late: 0, Early: 0, Misses: 0
40e-> Hits: 29, Late: 0, Early: 0, Misses: 0
40f-> Hits: 379, Late: 118, Early: 0, Misses: 1
410-> Hits: 51, Late: 0, Early: 0, Misses: 0
411-> Hits: 1157, Late: 0, Early: 0, Misses: 0
412-> Hits: 58, Late: 0, Early: 0, Misses: 0
413-> Hits: 1776, Late: 8, Early: 0, Misses: 0
414-> Hits: 1193, Late: 0, Early: 0, Misses: 0
415-> Hits: 156, Late: 0, Early: 0, Misses: 0
416-> Hits: 73, Late: 2, Early: 0, Misses: 0
417-> Hits: 156, Late: 0, Early: 0, Misses: 0
418-> Hits: 4, Late: 0, Early: 0, Misses: 0
419-> Hits: 305, Late: 42, Early: 0, Misses: 1
41a-> Hits: 2076, Late: 0, Early: 0, Misses: 2
41b-> Hits: 64063, Late: 0, Early: 0, Misses: 0
41c-> Hits: 167, Late: 40, Early: 0, Misses: 1
41d-> Hits: 26, Late: 0, Early: 0, Misses: 0
41e-> Hits: 9051, Late: 0, Early: 0, Misses: 1
41f-> Hits: 27044, Late: 0, Early: 0, Misses: 0
420-> Hits: 12071, Late: 0, Early: 0, Misses: 0
421-> Hits: 1464, Late: 0, Early: 0, Misses: 0
422-> Hits: 1207, Late: 26, Early: 0, Misses: 0
423-> Hits: 12178, Late: 15, Early: 0, Misses: 0
424-> Hits: 447, Late: 2, Early: 0, Misses: 0
425-> Hits: 3580, Late: 31, Early: 0, Misses: 0
426-> Hits: 1, Late: 0, Early: 0, Misses: 0
427-> Hits: 10, Late: 1, Early: 0, Misses: 0
428-> Hits: 13, Late: 0, Early: 0, Misses: 0
429-> Hits: 392, Late: 0, Early: 0, Misses: 3
42a-> Hits: 929, Late: 0, Early: 0, Misses: 0
42b-> Hits: 3788, Late: 191, Early: 0, Misses: 0
42c-> Hits: 212, Late: 0, Early: 0, Misses: 0
42d-> Hits: 226, Late: 0, Early: 0, Misses: 0
42e-> Hits: 2, Late: 0, Early: 0, Misses: 0
42f-> Hits: 1209, Late: 0, Early: 0, Misses: 0
430-> Hits: 2, Late: 0, Early: 0, Misses: 0
431-> Hits: 6546, Late: 2, Early: 0, Misses: 0
432-> Hits: 16, Late: 0, Early: 0, Misses: 0
433-> Hits: 3423, Late: 150, Early: 0, Misses: 0
434-> Hits: 945, Late: 7, Early: 0, Misses: 0
435-> Hits: 514, Late: 4, Early: 0, Misses: 0
436-> Hits: 1195, Late: 0, Early: 0, Misses: 0
437-> Hits: 2459, Late: 40, Early: 0, Misses: 0
439-> Hits: 7, Late: 0, Early: 0, Misses: 0
43a-> Hits: 144, Late: 0, Early: 0, Misses: 0
43b-> Hits: 1751, Late: 427, Early: 0, Misses: 0
43c-> Hits: 27, Late: 0, Early: 0, Misses: 0
43d-> Hits: 44, Late: 1, Early: 0, Misses: 0
43f-> Hits: 482, Late: 21, Early: 0, Misses: 0
440-> Hits: 214, Late: 0, Early: 0, Misses: 0
441-> Hits: 142, Late: 0, Early: 0, Misses: 0
442-> Hits: 114, Late: 0, Early: 0, Misses: 0
443-> Hits: 43, Late: 0, Early: 0, Misses: 0
444-> Hits: 76721, Late: 63, Early: 0, Misses: 4
445-> Hits: 2, Late: 0, Early: 0, Misses: 0
446-> Hits: 1, Late: 0, Early: 0, Misses: 0
447-> Hits: 109, Late: 0, Early: 0, Misses: 0
448-> Hits: 18, Late: 6, Early: 0, Misses: 0
449-> Hits: 21, Late: 1, Early: 0, Misses: 0
44a-> Hits: 19, Late: 4, Early: 0, Misses: 0
44b-> Hits: 166, Late: 60, Early: 0, Misses: 0
44c-> Hits: 218, Late: 7, Early: 0, Misses: 0
44d-> Hits: 1, Late: 0, Early: 0, Misses: 0
44e-> Hits: 86, Late: 0, Early: 0, Misses: 0
44f-> Hits: 20, Late: 0, Early: 0, Misses: 0
450-> Hits: 1260, Late: 38, Early: 0, Misses: 0
452-> Hits: 10, Late: 0, Early: 0, Misses: 0
453-> Hits: 1224, Late: 108, Early: 0, Misses: 0
455-> Hits: 3122, Late: 0, Early: 0, Misses: 0
456-> Hits: 25, Late: 13, Early: 0, Misses: 0
457-> Hits: 1203, Late: 320, Early: 0, Misses: 0
459-> Hits: 17, Late: 0, Early: 0, Misses: 0
45a-> Hits: 8, Late: 0, Early: 0, Misses: 0
45b-> Hits: 10, Late: 0, Early: 0, Misses: 0
45c-> Hits: 4, Late: 0, Early: 0, Misses: 0
45e-> Hits: 145, Late: 0, Early: 0, Misses: 0
460-> Hits: 3, Late: 0, Early: 0, Misses: 0
461-> Hits: 1, Late: 0, Early: 0, Misses: 0
463-> Hits: 14, Late: 0, Early: 0, Misses: 0
465-> Hits: 1896, Late: 5, Early: 0, Misses: 0
466-> Hits: 2951, Late: 1, Early: 0, Misses: 0
467-> Hits: 3, Late: 0, Early: 0, Misses: 0
468-> Hits: 1801, Late: 0, Early: 0, Misses: 0
469-> Hits: 1, Late: 0, Early: 0, Misses: 0
46a-> Hits: 136, Late: 0, Early: 0, Misses: 0
46b-> Hits: 715, Late: 15, Early: 0, Misses: 0
46c-> Hits: 12, Late: 0, Early: 0, Misses: 0
46d-> Hits: 152, Late: 0, Early: 0, Misses: 0
46f-> Hits: 4010, Late: 9, Early: 0, Misses: 0
470-> Hits: 3461, Late: 236, Early: 0, Misses: 0
471-> Hits: 768, Late: 5, Early: 0, Misses: 1
472-> Hits: 3784, Late: 0, Early: 0, Misses: 0
473-> Hits: 72, Late: 0, Early: 0, Misses: 0
474-> Hits: 330, Late: 0, Early: 0, Misses: 0
476-> Hits: 3, Late: 0, Early: 0, Misses: 0
477-> Hits: 697, Late: 0, Early: 0, Misses: 0
478-> Hits: 28709, Late: 0, Early: 0, Misses: 0
479-> Hits: 1, Late: 0, Early: 0, Misses: 0
47a-> Hits: 76, Late: 0, Early: 0, Misses: 0
47b-> Hits: 1531, Late: 4, Early: 0, Misses: 0
47c-> Hits: 84, Late: 0, Early: 0, Misses: 0
47d-> Hits: 153, Late: 0, Early: 0, Misses: 0
47f-> Hits: 74, Late: 0, Early: 0, Misses: 0
480-> Hits: 5, Late: 4, Early: 0, Misses: 0
481-> Hits: 34041, Late: 0, Early: 0, Misses: 0
482-> Hits: 521, Late: 0, Early: 0, Misses: 0
483-> Hits: 606, Late: 0, Early: 0, Misses: 0
484-> Hits: 27, Late: 1, Early: 0, Misses: 0
485-> Hits: 75, Late: 0, Early: 0, Misses: 0
486-> Hits: 49612, Late: 3, Early: 0, Misses: 0
487-> Hits: 1431, Late: 0, Early: 0, Misses: 0
488-> Hits: 20, Late: 0, Early: 0, Misses: 0
489-> Hits: 1, Late: 1, Early: 0, Misses: 0
48a-> Hits: 4432, Late: 0, Early: 0, Misses: 0
48c-> Hits: 22, Late: 0, Early: 0, Misses: 0
48d-> Hits: 12, Late: 0, Early: 0, Misses: 0
48e-> Hits: 4048, Late: 103, Early: 0, Misses: 0
48f-> Hits: 1187, Late: 0, Early: 0, Misses: 7
490-> Hits: 156, Late: 0, Early: 0, Misses: 0
491-> Hits: 563, Late: 2, Early: 0, Misses: 0
492-> Hits: 51928, Late: 0, Early: 0, Misses: 0
493-> Hits: 346, Late: 12, Early: 0, Misses: 0
494-> Hits: 133, Late: 0, Early: 0, Misses: 0
495-> Hits: 438, Late: 0, Early: 0, Misses: 0
496-> Hits: 3878, Late: 0, Early: 0, Misses: 0
497-> Hits: 8, Late: 0, Early: 0, Misses: 0
499-> Hits: 1251, Late: 79, Early: 0, Misses: 0
49a-> Hits: 4963, Late: 0, Early: 0, Misses: 0
49b-> Hits: 1183, Late: 0, Early: 0, Misses: 0
49c-> Hits: 96, Late: 0, Early: 0, Misses: 0
49d-> Hits: 995, Late: 0, Early: 0, Misses: 0
49e-> Hits: 17, Late: 0, Early: 0, Misses: 0
49f-> Hits: 32085, Late: 13, Early: 0, Misses: 0
4a0-> Hits: 1, Late: 0, Early: 0, Misses: 0
4a1-> Hits: 1194, Late: 4, Early: 0, Misses: 3
4a2-> Hits: 358, Late: 0, Early: 0, Misses: 0
4a3-> Hits: 1754, Late: 0, Early: 0, Misses: 0
4a4-> Hits: 2161, Late: 11, Early: 0, Misses: 0
4a5-> Hits: 2978, Late: 5, Early: 0, Misses: 0
4a6-> Hits: 1533, Late: 0, Early: 0, Misses: 0
4a7-> Hits: 3477, Late: 0, Early: 0, Misses: 0
4a8-> Hits: 62244, Late: 1, Early: 0, Misses: 0
4a9-> Hits: 48235, Late: 0, Early: 0, Misses: 0
4aa-> Hits: 1895, Late: 0, Early: 0, Misses: 0
4ab-> Hits: 371, Late: 0, Early: 0, Misses: 0
4ac-> Hits: 1129, Late: 2, Early: 0, Misses: 0
4ad-> Hits: 1486, Late: 1, Early: 0, Misses: 0
4ae-> Hits: 3, Late: 0, Early: 0, Misses: 0
4af-> Hits: 226, Late: 0, Early: 0, Misses: 0
4b0-> Hits: 2, Late: 0, Early: 0, Misses: 0
4b1-> Hits: 332, Late: 0, Early: 0, Misses: 0
4b2-> Hits: 1755, Late: 0, Early: 0, Misses: 0
4b3-> Hits: 158, Late: 0, Early: 0, Misses: 0
4b5-> Hits: 2, Late: 0, Early: 0, Misses: 0
4b6-> Hits: 63158, Late: 93, Early: 0, Misses: 0
4b7-> Hits: 2815, Late: 671, Early: 0, Misses: 0
4b8-> Hits: 4344, Late: 0, Early: 0, Misses: 0
4b9-> Hits: 8, Late: 0, Early: 0, Misses: 0
4ba-> Hits: 86, Late: 1, Early: 0, Misses: 0
4bc-> Hits: 1170, Late: 0, Early: 0, Misses: 0
4bd-> Hits: 338, Late: 180, Early: 0, Misses: 8
4be-> Hits: 5313, Late: 42, Early: 0, Misses: 0
4bf-> Hits: 3712, Late: 393, Early: 0, Misses: 0
4c0-> Hits: 8146, Late: 4, Early: 0, Misses: 3
4c1-> Hits: 46983, Late: 0, Early: 0, Misses: 0
4c3-> Hits: 79, Late: 1, Early: 0, Misses: 0
4c4-> Hits: 246, Late: 2, Early: 0, Misses: 0
4c5-> Hits: 6, Late: 0, Early: 0, Misses: 0
4c6-> Hits: 12149, Late: 0, Early: 0, Misses: 0
4c7-> Hits: 4407, Late: 1, Early: 0, Misses: 0
4c8-> Hits: 0, Late: 1, Early: 0, Misses: 0
4c9-> Hits: 8811, Late: 0, Early: 0, Misses: 0
4ca-> Hits: 7564, Late: 22, Early: 0, Misses: 0
4cb-> Hits: 4024, Late: 0, Early: 0, Misses: 0
4cc-> Hits: 69, Late: 25, Early: 0, Misses: 0
4cd-> Hits: 4034, Late: 0, Early: 0, Misses: 0
4ce-> Hits: 3404, Late: 6, Early: 0, Misses: 0
4cf-> Hits: 4104, Late: 0, Early: 0, Misses: 0
4d0-> Hits: 125093, Late: 1, Early: 0, Misses: 0
4d1-> Hits: 137, Late: 0, Early: 0, Misses: 0
4d2-> Hits: 4216, Late: 0, Early: 0, Misses: 0
4d3-> Hits: 331, Late: 0, Early: 0, Misses: 0
4d4-> Hits: 63, Late: 0, Early: 0, Misses: 0
4d7-> Hits: 123105, Late: 200, Early: 0, Misses: 0
4d8-> Hits: 91, Late: 0, Early: 0, Misses: 0
4d9-> Hits: 2233, Late: 1, Early: 0, Misses: 0
4da-> Hits: 2816, Late: 13, Early: 0, Misses: 0
4db-> Hits: 1202, Late: 0, Early: 0, Misses: 0
4dc-> Hits: 24, Late: 0, Early: 0, Misses: 0
4dd-> Hits: 2334, Late: 0, Early: 0, Misses: 0
4de-> Hits: 1392, Late: 2, Early: 0, Misses: 0
4df-> Hits: 38, Late: 1, Early: 0, Misses: 0
4e0-> Hits: 2011, Late: 49, Early: 0, Misses: 0
4e1-> Hits: 28, Late: 0, Early: 0, Misses: 0
4e2-> Hits: 8207, Late: 2, Early: 0, Misses: 0
4e3-> Hits: 130, Late: 1, Early: 0, Misses: 0
4e4-> Hits: 2271, Late: 3, Early: 0, Misses: 0
4e5-> Hits: 4647, Late: 4, Early: 0, Misses: 0
4e6-> Hits: 773, Late: 0, Early: 0, Misses: 0
4e7-> Hits: 9, Late: 5, Early: 0, Misses: 0
4e8-> Hits: 4077, Late: 35, Early: 0, Misses: 0
4e9-> Hits: 15, Late: 0, Early: 0, Misses: 0
4ea-> Hits: 231, Late: 4, Early: 0, Misses: 0
4ec-> Hits: 5549, Late: 76, Early: 0, Misses: 1
4ed-> Hits: 877, Late: 0, Early: 0, Misses: 0
4ee-> Hits: 1197, Late: 7, Early: 0, Misses: 0
4ef-> Hits: 2665, Late: 0, Early: 0, Misses: 0
4f0-> Hits: 30, Late: 6, Early: 0, Misses: 0
4f1-> Hits: 342, Late: 6, Early: 0, Misses: 0
4f2-> Hits: 12, Late: 2, Early: 0, Misses: 0
4f3-> Hits: 196, Late: 6, Early: 0, Misses: 0
4f4-> Hits: 3, Late: 1, Early: 0, Misses: 0
4f5-> Hits: 1127, Late: 123, Early: 0, Misses: 0
4f6-> Hits: 109, Late: 2, Early: 0, Misses: 0
4f7-> Hits: 1549, Late: 66, Early: 0, Misses: 0
4f8-> Hits: 523, Late: 0, Early: 0, Misses: 0
4f9-> Hits: 1125, Late: 38, Early: 0, Misses: 0
4fa-> Hits: 462, Late: 11, Early: 0, Misses: 0
4fb-> Hits: 3515, Late: 0, Early: 0, Misses: 0
4fc-> Hits: 1210, Late: 6, Early: 0, Misses: 0
4fd-> Hits: 1193, Late: 0, Early: 0, Misses: 0
4fe-> Hits: 48, Late: 0, Early: 0, Misses: 0
4ff-> Hits: 3335, Late: 0, Early: 0, Misses: 0
500-> Hits: 118, Late: 8, Early: 0, Misses: 0
501-> Hits: 10, Late: 0, Early: 0, Misses: 0
503-> Hits: 2405, Late: 0, Early: 0, Misses: 0
504-> Hits: 960, Late: 0, Early: 0, Misses: 0
505-> Hits: 1460, Late: 23, Early: 0, Misses: 0
506-> Hits: 4, Late: 0, Early: 0, Misses: 0
507-> Hits: 8133, Late: 1, Early: 0, Misses: 0
508-> Hits: 3747, Late: 44, Early: 0, Misses: 0
509-> Hits: 718, Late: 0, Early: 0, Misses: 0
50a-> Hits: 15, Late: 0, Early: 0, Misses: 0
50b-> Hits: 11, Late: 0, Early: 0, Misses: 0
50c-> Hits: 22, Late: 0, Early: 0, Misses: 0
50d-> Hits: 649, Late: 0, Early: 0, Misses: 0
50e-> Hits: 9420, Late: 34, Early: 0, Misses: 5
50f-> Hits: 53, Late: 0, Early: 0, Misses: 0
510-> Hits: 607, Late: 0, Early: 0, Misses: 0
511-> Hits: 45, Late: 2, Early: 0, Misses: 0
512-> Hits: 255, Late: 3, Early: 0, Misses: 0
513-> Hits: 33, Late: 0, Early: 0, Misses: 0
514-> Hits: 122145, Late: 2, Early: 0, Misses: 0
515-> Hits: 5038, Late: 0, Early: 0, Misses: 0
516-> Hits: 12, Late: 0, Early: 0, Misses: 0
517-> Hits: 94, Late: 0, Early: 0, Misses: 0
518-> Hits: 107, Late: 8, Early: 0, Misses: 0
519-> Hits: 644, Late: 0, Early: 0, Misses: 0
51a-> Hits: 9, Late: 0, Early: 0, Misses: 0
51b-> Hits: 11, Late: 1, Early: 0, Misses: 0
51c-> Hits: 1087, Late: 2, Early: 0, Misses: 0
51d-> Hits: 387, Late: 9, Early: 0, Misses: 0
51f-> Hits: 12, Late: 0, Early: 0, Misses: 0
520-> Hits: 74, Late: 1, Early: 0, Misses: 0
521-> Hits: 1, Late: 0, Early: 0, Misses: 0
523-> Hits: 2023, Late: 179, Early: 0, Misses: 19
524-> Hits: 494, Late: 0, Early: 0, Misses: 0
525-> Hits: 25, Late: 0, Early: 0, Misses: 0
526-> Hits: 434, Late: 1, Early: 0, Misses: 0
527-> Hits: 33, Late: 0, Early: 0, Misses: 0
528-> Hits: 28, Late: 0, Early: 0, Misses: 0
529-> Hits: 411, Late: 0, Early: 0, Misses: 0
52a-> Hits: 346, Late: 0, Early: 0, Misses: 0
52b-> Hits: 122, Late: 35, Early: 0, Misses: 0
52c-> Hits: 236, Late: 0, Early: 0, Misses: 0
52f-> Hits: 342, Late: 0, Early: 0, Misses: 0
530-> Hits: 7410, Late: 14, Early: 0, Misses: 2
531-> Hits: 38, Late: 0, Early: 0, Misses: 0
532-> Hits: 33, Late: 0, Early: 0, Misses: 0
533-> Hits: 25, Late: 0, Early: 0, Misses: 0
534-> Hits: 1768, Late: 0, Early: 0, Misses: 0
535-> Hits: 1603, Late: 365, Early: 0, Misses: 0
536-> Hits: 393, Late: 0, Early: 0, Misses: 0
537-> Hits: 13, Late: 2, Early: 0, Misses: 0
538-> Hits: 397, Late: 1, Early: 0, Misses: 0
539-> Hits: 1, Late: 0, Early: 0, Misses: 0
53a-> Hits: 3742, Late: 1027, Early: 0, Misses: 0
53b-> Hits: 381, Late: 0, Early: 0, Misses: 0
53c-> Hits: 2501, Late: 111, Early: 0, Misses: 0
53e-> Hits: 418, Late: 0, Early: 0, Misses: 0
540-> Hits: 270, Late: 6, Early: 0, Misses: 0
541-> Hits: 132538, Late: 113, Early: 0, Misses: 1
542-> Hits: 121007, Late: 0, Early: 0, Misses: 0
543-> Hits: 172, Late: 0, Early: 0, Misses: 0
544-> Hits: 121315, Late: 616, Early: 0, Misses: 0
546-> Hits: 121152, Late: 16, Early: 0, Misses: 0
548-> Hits: 132145, Late: 27, Early: 0, Misses: 0
549-> Hits: 2982, Late: 0, Early: 0, Misses: 0
54a-> Hits: 121026, Late: 10, Early: 0, Misses: 0
54b-> Hits: 123863, Late: 0, Early: 0, Misses: 0
54c-> Hits: 7831, Late: 0, Early: 0, Misses: 0
54d-> Hits: 4250, Late: 0, Early: 0, Misses: 0
54e-> Hits: 82, Late: 15, Early: 0, Misses: 0
54f-> Hits: 3346, Late: 0, Early: 0, Misses: 0
550-> Hits: 40, Late: 0, Early: 0, Misses: 0
551-> Hits: 3224, Late: 0, Early: 0, Misses: 0
552-> Hits: 4316, Late: 0, Early: 0, Misses: 0
553-> Hits: 207, Late: 3, Early: 0, Misses: 0
554-> Hits: 1118, Late: 0, Early: 0, Misses: 0
555-> Hits: 3107, Late: 89, Early: 0, Misses: 0
556-> Hits: 685, Late: 0, Early: 0, Misses: 0
557-> Hits: 453, Late: 20, Early: 0, Misses: 13
558-> Hits: 292, Late: 0, Early: 0, Misses: 0
559-> Hits: 471, Late: 547, Early: 0, Misses: 0
55a-> Hits: 1145, Late: 1, Early: 0, Misses: 0
55b-> Hits: 250, Late: 0, Early: 0, Misses: 0
55d-> Hits: 1159, Late: 0, Early: 0, Misses: 0
55e-> Hits: 106, Late: 0, Early: 0, Misses: 0
55f-> Hits: 6, Late: 0, Early: 0, Misses: 0
560-> Hits: 2496, Late: 41, Early: 0, Misses: 0
561-> Hits: 4151, Late: 0, Early: 0, Misses: 0
562-> Hits: 3226, Late: 0, Early: 0, Misses: 0
563-> Hits: 2202, Late: 133, Early: 0, Misses: 0
564-> Hits: 2450, Late: 168, Early: 0, Misses: 0
565-> Hits: 1096, Late: 7, Early: 0, Misses: 0
567-> Hits: 9, Late: 0, Early: 0, Misses: 0
568-> Hits: 94, Late: 0, Early: 0, Misses: 0
569-> Hits: 1, Late: 0, Early: 0, Misses: 0
56a-> Hits: 384, Late: 5, Early: 0, Misses: 0
56c-> Hits: 136, Late: 1, Early: 0, Misses: 0
56d-> Hits: 1134, Late: 0, Early: 0, Misses: 8
56e-> Hits: 1490, Late: 18, Early: 0, Misses: 0
56f-> Hits: 197, Late: 0, Early: 0, Misses: 0
570-> Hits: 925, Late: 0, Early: 0, Misses: 0
571-> Hits: 131776, Late: 2, Early: 0, Misses: 3
572-> Hits: 1758, Late: 218, Early: 0, Misses: 0
573-> Hits: 956, Late: 0, Early: 0, Misses: 0
574-> Hits: 29, Late: 0, Early: 0, Misses: 0
575-> Hits: 1080, Late: 0, Early: 0, Misses: 0
576-> Hits: 1071, Late: 15, Early: 0, Misses: 0
578-> Hits: 1461, Late: 13, Early: 0, Misses: 0
579-> Hits: 151, Late: 0, Early: 0, Misses: 0
57a-> Hits: 221, Late: 0, Early: 0, Misses: 0
57b-> Hits: 871, Late: 0, Early: 0, Misses: 0
57c-> Hits: 104, Late: 0, Early: 0, Misses: 0
57d-> Hits: 2151, Late: 0, Early: 0, Misses: 0
57e-> Hits: 4145, Late: 0, Early: 0, Misses: 0
57f-> Hits: 5405, Late: 168, Early: 0, Misses: 0
580-> Hits: 103, Late: 12, Early: 0, Misses: 0
581-> Hits: 6007, Late: 4, Early: 0, Misses: 0
582-> Hits: 1256, Late: 0, Early: 0, Misses: 0
583-> Hits: 5262, Late: 0, Early: 0, Misses: 1
584-> Hits: 198, Late: 2, Early: 0, Misses: 0
585-> Hits: 4588, Late: 0, Early: 0, Misses: 0
586-> Hits: 175, Late: 0, Early: 0, Misses: 0
587-> Hits: 4191, Late: 0, Early: 0, Misses: 0
588-> Hits: 1614, Late: 0, Early: 0, Misses: 0
589-> Hits: 114, Late: 0, Early: 0, Misses: 0
58a-> Hits: 261, Late: 0, Early: 0, Misses: 0
58b-> Hits: 221, Late: 0, Early: 0, Misses: 0
58c-> Hits: 718, Late: 2, Early: 0, Misses: 0
58d-> Hits: 129751, Late: 0, Early: 0, Misses: 0
58e-> Hits: 105, Late: 0, Early: 0, Misses: 0
58f-> Hits: 1427, Late: 151, Early: 0, Misses: 0
590-> Hits: 89, Late: 0, Early: 0, Misses: 0
591-> Hits: 226, Late: 0, Early: 0, Misses: 0
592-> Hits: 1654, Late: 1, Early: 0, Misses: 0
595-> Hits: 67, Late: 0, Early: 0, Misses: 0
596-> Hits: 16, Late: 5, Early: 0, Misses: 0
597-> Hits: 504, Late: 0, Early: 0, Misses: 0
598-> Hits: 2184, Late: 11, Early: 0, Misses: 0
599-> Hits: 1858, Late: 0, Early: 0, Misses: 0
59a-> Hits: 1798, Late: 30, Early: 0, Misses: 3
59b-> Hits: 3244, Late: 6, Early: 0, Misses: 0
59c-> Hits: 1096, Late: 0, Early: 0, Misses: 0
59d-> Hits: 34, Late: 1, Early: 0, Misses: 0
59e-> Hits: 68, Late: 0, Early: 0, Misses: 0
59f-> Hits: 2400, Late: 1, Early: 0, Misses: 0
5a0-> Hits: 336, Late: 59, Early: 0, Misses: 0
5a1-> Hits: 15, Late: 2, Early: 0, Misses: 0
5a2-> Hits: 399, Late: 0, Early: 0, Misses: 0
5a3-> Hits: 5962, Late: 2, Early: 0, Misses: 0
5a4-> Hits: 1302, Late: 0, Early: 0, Misses: 0
5a5-> Hits: 35, Late: 4, Early: 0, Misses: 0
5a6-> Hits: 364, Late: 1, Early: 0, Misses: 0
5a7-> Hits: 1604, Late: 12, Early: 0, Misses: 0
5a8-> Hits: 1352, Late: 0, Early: 0, Misses: 0
5a9-> Hits: 2716, Late: 169, Early: 0, Misses: 4
5aa-> Hits: 2, Late: 1, Early: 0, Misses: 0
5ab-> Hits: 1153, Late: 0, Early: 0, Misses: 0
5ac-> Hits: 6406, Late: 9, Early: 0, Misses: 0
5ad-> Hits: 1728, Late: 40, Early: 0, Misses: 0
5ae-> Hits: 240, Late: 0, Early: 0, Misses: 0
5af-> Hits: 29, Late: 0, Early: 0, Misses: 0
5b1-> Hits: 31, Late: 0, Early: 0, Misses: 0
5b2-> Hits: 47, Late: 0, Early: 0, Misses: 0
5b3-> Hits: 19, Late: 0, Early: 0, Misses: 0
5b4-> Hits: 6608, Late: 0, Early: 0, Misses: 0
5b5-> Hits: 134, Late: 0, Early: 0, Misses: 0
5b6-> Hits: 137, Late: 0, Early: 0, Misses: 0
5b7-> Hits: 3216, Late: 0, Early: 0, Misses: 0
5b9-> Hits: 459, Late: 0, Early: 0, Misses: 0
5ba-> Hits: 9772, Late: 0, Early: 0, Misses: 1
5be-> Hits: 4, Late: 0, Early: 0, Misses: 0
5c0-> Hits: 2648, Late: 107, Early: 0, Misses: 1
5c1-> Hits: 742, Late: 79, Early: 0, Misses: 1
5c2-> Hits: 847, Late: 0, Early: 0, Misses: 0
5c3-> Hits: 1112, Late: 18, Early: 0, Misses: 0
5c4-> Hits: 9, Late: 0, Early: 0, Misses: 0
5c5-> Hits: 97, Late: 0, Early: 0, Misses: 0
5c6-> Hits: 74, Late: 0, Early: 0, Misses: 0
5c7-> Hits: 1100, Late: 0, Early: 0, Misses: 0
5c8-> Hits: 10, Late: 0, Early: 0, Misses: 0
5c9-> Hits: 127, Late: 0, Early: 0, Misses: 0
5ca-> Hits: 143534, Late: 1, Early: 0, Misses: 3
5cb-> Hits: 197, Late: 0, Early: 0, Misses: 0
5cc-> Hits: 80, Late: 0, Early: 0, Misses: 0
5cd-> Hits: 918, Late: 83, Early: 0, Misses: 0
5ce-> Hits: 1102, Late: 0, Early: 0, Misses: 0
5cf-> Hits: 2, Late: 0, Early: 0, Misses: 0
5d0-> Hits: 549, Late: 0, Early: 0, Misses: 0
5d1-> Hits: 143978, Late: 159, Early: 0, Misses: 1
5d2-> Hits: 889, Late: 0, Early: 0, Misses: 0
5d3-> Hits: 69, Late: 0, Early: 0, Misses: 0
5d4-> Hits: 2617, Late: 4, Early: 0, Misses: 85
5d5-> Hits: 8203, Late: 0, Early: 0, Misses: 0
5d6-> Hits: 156, Late: 0, Early: 0, Misses: 0
5d7-> Hits: 289, Late: 0, Early: 0, Misses: 0
5d8-> Hits: 1, Late: 0, Early: 0, Misses: 0
5d9-> Hits: 1568, Late: 77, Early: 0, Misses: 1
5da-> Hits: 21, Late: 0, Early: 0, Misses: 0
5db-> Hits: 1627, Late: 0, Early: 0, Misses: 0
5dc-> Hits: 181, Late: 539, Early: 0, Misses: 1
5dd-> Hits: 994, Late: 15, Early: 0, Misses: 0
5de-> Hits: 213, Late: 0, Early: 0, Misses: 0
5df-> Hits: 24, Late: 11, Early: 0, Misses: 2
5e0-> Hits: 209, Late: 0, Early: 0, Misses: 0
5e1-> Hits: 137, Late: 0, Early: 0, Misses: 0
5e2-> Hits: 1576, Late: 4, Early: 0, Misses: 0
5e3-> Hits: 1410, Late: 24, Early: 0, Misses: 0
5e4-> Hits: 37, Late: 0, Early: 0, Misses: 0
5e5-> Hits: 2035, Late: 0, Early: 0, Misses: 0
5e6-> Hits: 1579, Late: 1, Early: 0, Misses: 0
5e7-> Hits: 150, Late: 0, Early: 0, Misses: 0
5e8-> Hits: 745, Late: 0, Early: 0, Misses: 0
5e9-> Hits: 2659, Late: 83, Early: 0, Misses: 0
5ea-> Hits: 70, Late: 0, Early: 0, Misses: 0
5eb-> Hits: 10, Late: 0, Early: 0, Misses: 0
5ec-> Hits: 16160, Late: 152, Early: 0, Misses: 0
5ee-> Hits: 2266, Late: 0, Early: 0, Misses: 0
5ef-> Hits: 1096, Late: 0, Early: 0, Misses: 0
5f0-> Hits: 3000, Late: 453, Early: 0, Misses: 0
5f1-> Hits: 1417, Late: 0, Early: 0, Misses: 0
5f3-> Hits: 1609, Late: 0, Early: 0, Misses: 0
5f4-> Hits: 764, Late: 116, Early: 0, Misses: 0
5f5-> Hits: 2863, Late: 73, Early: 0, Misses: 0
5f6-> Hits: 213, Late: 0, Early: 0, Misses: 0
5f7-> Hits: 2579, Late: 0, Early: 0, Misses: 1
5f8-> Hits: 6, Late: 0, Early: 0, Misses: 0
5f9-> Hits: 18169, Late: 7, Early: 0, Misses: 0
5fa-> Hits: 227, Late: 0, Early: 0, Misses: 0
5fc-> Hits: 27, Late: 0, Early: 0, Misses: 0
5fe-> Hits: 2007, Late: 0, Early: 0, Misses: 0
5ff-> Hits: 149, Late: 1, Early: 0, Misses: 0
600-> Hits: 180, Late: 12, Early: 0, Misses: 0
601-> Hits: 107, Late: 0, Early: 0, Misses: 0
602-> Hits: 261, Late: 23, Early: 0, Misses: 0
603-> Hits: 34, Late: 0, Early: 0, Misses: 0
604-> Hits: 4, Late: 0, Early: 0, Misses: 0
605-> Hits: 2701, Late: 0, Early: 0, Misses: 0
[...]
e7b-> Hits: 2489, Late: 1, Early: 0, Misses: 0
e7c-> Hits: 4020, Late: 0, Early: 0, Misses: 0
e7d-> Hits: 67, Late: 0, Early: 0, Misses: 0
e7e-> Hits: 33, Late: 0, Early: 0, Misses: 0
e7f-> Hits: 36, Late: 0, Early: 0, Misses: 0
e80-> Hits: 3312, Late: 2, Early: 0, Misses: 0
e81-> Hits: 1108, Late: 179, Early: 0, Misses: 0
e82-> Hits: 1201, Late: 0, Early: 0, Misses: 0
e83-> Hits: 10, Late: 0, Early: 0, Misses: 0
e84-> Hits: 402, Late: 152, Early: 0, Misses: 0
e85-> Hits: 84391, Late: 0, Early: 0, Misses: 0
e86-> Hits: 1086, Late: 50, Early: 0, Misses: 0
e87-> Hits: 253, Late: 2, Early: 0, Misses: 0
e88-> Hits: 6, Late: 0, Early: 0, Misses: 0
e89-> Hits: 1201, Late: 0, Early: 0, Misses: 0
e8a-> Hits: 2487, Late: 380, Early: 0, Misses: 0
e8b-> Hits: 4, Late: 0, Early: 0, Misses: 0
e8c-> Hits: 2, Late: 0, Early: 0, Misses: 0
e8d-> Hits: 2623, Late: 4, Early: 0, Misses: 0
e8e-> Hits: 1998, Late: 0, Early: 0, Misses: 0
e8f-> Hits: 120, Late: 23, Early: 0, Misses: 0
e90-> Hits: 48, Late: 36, Early: 0, Misses: 0
e91-> Hits: 71, Late: 0, Early: 0, Misses: 0
e93-> Hits: 144, Late: 0, Early: 0, Misses: 0
e94-> Hits: 1454, Late: 8, Early: 0, Misses: 0
e95-> Hits: 1673, Late: 29, Early: 0, Misses: 0
e96-> Hits: 145, Late: 0, Early: 0, Misses: 0
e97-> Hits: 264, Late: 44, Early: 0, Misses: 0
e98-> Hits: 73, Late: 0, Early: 0, Misses: 0
e99-> Hits: 432, Late: 3, Early: 0, Misses: 0
e9a-> Hits: 21, Late: 0, Early: 0, Misses: 0
e9b-> Hits: 8, Late: 7, Early: 0, Misses: 0
e9c-> Hits: 26, Late: 0, Early: 0, Misses: 0
e9d-> Hits: 1, Late: 0, Early: 0, Misses: 0
e9e-> Hits: 115, Late: 0, Early: 0, Misses: 0
e9f-> Hits: 83968, Late: 0, Early: 0, Misses: 0
ea0-> Hits: 275, Late: 0, Early: 0, Misses: 0
ea1-> Hits: 147, Late: 0, Early: 0, Misses: 0
ea2-> Hits: 20, Late: 0, Early: 0, Misses: 0
ea3-> Hits: 729, Late: 0, Early: 0, Misses: 0
ea4-> Hits: 224, Late: 0, Early: 0, Misses: 0
ea5-> Hits: 189, Late: 0, Early: 0, Misses: 0
ea6-> Hits: 8, Late: 33, Early: 0, Misses: 0
ea7-> Hits: 1370, Late: 4, Early: 0, Misses: 0
ea8-> Hits: 41, Late: 0, Early: 0, Misses: 0
ea9-> Hits: 609, Late: 0, Early: 0, Misses: 0
eaa-> Hits: 441, Late: 0, Early: 0, Misses: 0
eab-> Hits: 1197, Late: 159, Early: 0, Misses: 0
eac-> Hits: 7788, Late: 0, Early: 0, Misses: 0
ead-> Hits: 710, Late: 49, Early: 0, Misses: 0
eae-> Hits: 56, Late: 0, Early: 0, Misses: 0
eaf-> Hits: 76, Late: 0, Early: 0, Misses: 0
eb0-> Hits: 10195, Late: 396, Early: 0, Misses: 0
eb1-> Hits: 573, Late: 16, Early: 0, Misses: 0
eb3-> Hits: 59, Late: 0, Early: 0, Misses: 0
eb4-> Hits: 14, Late: 0, Early: 0, Misses: 0
eb5-> Hits: 1192, Late: 8, Early: 0, Misses: 0
eb6-> Hits: 356, Late: 0, Early: 0, Misses: 0
eb7-> Hits: 6, Late: 2, Early: 0, Misses: 0
eb8-> Hits: 356, Late: 0, Early: 0, Misses: 0
eb9-> Hits: 8, Late: 0, Early: 0, Misses: 0
eba-> Hits: 5469, Late: 7, Early: 0, Misses: 0
ebb-> Hits: 21, Late: 3, Early: 0, Misses: 0
ebc-> Hits: 206, Late: 0, Early: 0, Misses: 0
ebd-> Hits: 380, Late: 1, Early: 0, Misses: 0
ebe-> Hits: 12, Late: 0, Early: 0, Misses: 0
ebf-> Hits: 353, Late: 0, Early: 0, Misses: 0
ec0-> Hits: 6014, Late: 6, Early: 0, Misses: 0
ec1-> Hits: 145, Late: 15, Early: 0, Misses: 0
ec2-> Hits: 805, Late: 0, Early: 0, Misses: 0
ec3-> Hits: 64, Late: 0, Early: 0, Misses: 0
ec4-> Hits: 1043, Late: 42, Early: 0, Misses: 0
ec5-> Hits: 39, Late: 0, Early: 0, Misses: 0
ec6-> Hits: 831, Late: 43, Early: 0, Misses: 0
ec7-> Hits: 5837, Late: 1, Early: 0, Misses: 0
ec8-> Hits: 805, Late: 0, Early: 0, Misses: 0
ec9-> Hits: 25, Late: 0, Early: 0, Misses: 0
eca-> Hits: 2363, Late: 0, Early: 0, Misses: 0
ecb-> Hits: 808, Late: 0, Early: 0, Misses: 0
ecc-> Hits: 27, Late: 0, Early: 0, Misses: 0
ece-> Hits: 74, Late: 0, Early: 0, Misses: 0
ed0-> Hits: 1172, Late: 54, Early: 0, Misses: 0
ed1-> Hits: 206, Late: 0, Early: 0, Misses: 0
ed3-> Hits: 13, Late: 0, Early: 0, Misses: 0
ed4-> Hits: 163, Late: 0, Early: 0, Misses: 0
ed5-> Hits: 1110, Late: 18, Early: 0, Misses: 0
ed6-> Hits: 410, Late: 0, Early: 0, Misses: 0
ed7-> Hits: 74, Late: 0, Early: 0, Misses: 0
ed8-> Hits: 3498, Late: 15, Early: 0, Misses: 0
ed9-> Hits: 3064, Late: 184, Early: 0, Misses: 3
eda-> Hits: 28, Late: 0, Early: 0, Misses: 0
edb-> Hits: 37, Late: 1, Early: 0, Misses: 0
edc-> Hits: 50, Late: 12, Early: 0, Misses: 0
edd-> Hits: 20, Late: 0, Early: 0, Misses: 0
edf-> Hits: 2, Late: 0, Early: 0, Misses: 0
ee0-> Hits: 568, Late: 1, Early: 0, Misses: 0
ee1-> Hits: 7425, Late: 23, Early: 0, Misses: 0
ee2-> Hits: 1242, Late: 159, Early: 0, Misses: 0
ee3-> Hits: 136, Late: 0, Early: 0, Misses: 0
ee4-> Hits: 7, Late: 0, Early: 0, Misses: 0
ee5-> Hits: 10787, Late: 0, Early: 0, Misses: 0
ee7-> Hits: 15, Late: 0, Early: 0, Misses: 0
ee8-> Hits: 11, Late: 0, Early: 0, Misses: 0
ee9-> Hits: 139, Late: 2, Early: 0, Misses: 0
eea-> Hits: 786, Late: 0, Early: 0, Misses: 0
eeb-> Hits: 8207, Late: 1, Early: 0, Misses: 0
eec-> Hits: 7487, Late: 5, Early: 0, Misses: 0
eed-> Hits: 51, Late: 17, Early: 0, Misses: 0
eee-> Hits: 1716, Late: 0, Early: 0, Misses: 0
eef-> Hits: 11, Late: 0, Early: 0, Misses: 0
ef0-> Hits: 6301, Late: 1, Early: 0, Misses: 0
ef1-> Hits: 4, Late: 0, Early: 0, Misses: 0
ef2-> Hits: 249, Late: 0, Early: 0, Misses: 0
ef3-> Hits: 5366, Late: 473, Early: 0, Misses: 0
ef4-> Hits: 163, Late: 5, Early: 0, Misses: 0
ef5-> Hits: 1634, Late: 0, Early: 0, Misses: 0
ef6-> Hits: 2, Late: 0, Early: 0, Misses: 0
ef7-> Hits: 4079, Late: 45, Early: 0, Misses: 0
ef8-> Hits: 3, Late: 0, Early: 0, Misses: 0
ef9-> Hits: 749, Late: 0, Early: 0, Misses: 0
efa-> Hits: 3106, Late: 6, Early: 0, Misses: 0
efb-> Hits: 5503, Late: 83, Early: 0, Misses: 1
efc-> Hits: 123, Late: 34, Early: 0, Misses: 0
efd-> Hits: 1675, Late: 5, Early: 0, Misses: 0
efe-> Hits: 8031, Late: 12, Early: 0, Misses: 0
eff-> Hits: 1466, Late: 0, Early: 0, Misses: 0
f00-> Hits: 472, Late: 23, Early: 0, Misses: 0
f01-> Hits: 1622, Late: 0, Early: 0, Misses: 0
f02-> Hits: 211, Late: 10, Early: 0, Misses: 0
f03-> Hits: 1504, Late: 0, Early: 0, Misses: 0
f04-> Hits: 1522, Late: 0, Early: 0, Misses: 0
f05-> Hits: 250, Late: 6, Early: 0, Misses: 0
f06-> Hits: 3938, Late: 671, Early: 0, Misses: 0
f07-> Hits: 4118, Late: 233, Early: 0, Misses: 1
f08-> Hits: 24, Late: 1, Early: 0, Misses: 0
f09-> Hits: 5543, Late: 0, Early: 0, Misses: 0
f0a-> Hits: 5, Late: 0, Early: 0, Misses: 2
f0b-> Hits: 6, Late: 0, Early: 0, Misses: 0
f0c-> Hits: 9106, Late: 0, Early: 0, Misses: 0
f0d-> Hits: 374, Late: 1, Early: 0, Misses: 0
f0e-> Hits: 24, Late: 0, Early: 0, Misses: 0
f0f-> Hits: 8, Late: 8, Early: 0, Misses: 0
f10-> Hits: 20, Late: 0, Early: 0, Misses: 0
f11-> Hits: 21960, Late: 17, Early: 0, Misses: 0
f12-> Hits: 9, Late: 0, Early: 0, Misses: 0
f13-> Hits: 62, Late: 10, Early: 0, Misses: 0
f14-> Hits: 1, Late: 0, Early: 0, Misses: 0
f15-> Hits: 44, Late: 3, Early: 0, Misses: 0
f16-> Hits: 436, Late: 2, Early: 0, Misses: 0
f17-> Hits: 40, Late: 47, Early: 0, Misses: 0
f18-> Hits: 1964, Late: 28, Early: 0, Misses: 0
f19-> Hits: 11, Late: 0, Early: 0, Misses: 0
f1a-> Hits: 24, Late: 0, Early: 0, Misses: 0
f1b-> Hits: 18, Late: 0, Early: 0, Misses: 0
f1c-> Hits: 20, Late: 0, Early: 0, Misses: 0
f1d-> Hits: 3372, Late: 0, Early: 0, Misses: 0
f1e-> Hits: 14, Late: 0, Early: 0, Misses: 0
f1f-> Hits: 4077, Late: 0, Early: 0, Misses: 0
f20-> Hits: 14, Late: 0, Early: 0, Misses: 0
f21-> Hits: 1901, Late: 241, Early: 0, Misses: 8
f23-> Hits: 17, Late: 0, Early: 0, Misses: 0
f24-> Hits: 17, Late: 0, Early: 0, Misses: 0
f25-> Hits: 10, Late: 0, Early: 0, Misses: 0
f26-> Hits: 150, Late: 0, Early: 0, Misses: 0
f27-> Hits: 2688, Late: 44, Early: 0, Misses: 0
f28-> Hits: 61, Late: 0, Early: 0, Misses: 0
f29-> Hits: 147, Late: 0, Early: 0, Misses: 0
f2a-> Hits: 7176, Late: 1605, Early: 0, Misses: 4
f2b-> Hits: 2817, Late: 163, Early: 0, Misses: 32
f2d-> Hits: 16460, Late: 3, Early: 0, Misses: 2
f2e-> Hits: 6, Late: 0, Early: 0, Misses: 0
f30-> Hits: 1011, Late: 100, Early: 0, Misses: 0
f31-> Hits: 11, Late: 0, Early: 0, Misses: 0
f32-> Hits: 387, Late: 53, Early: 0, Misses: 0
f33-> Hits: 23, Late: 1, Early: 0, Misses: 0
f34-> Hits: 17832, Late: 207, Early: 0, Misses: 0
f37-> Hits: 97, Late: 2, Early: 0, Misses: 0
f38-> Hits: 64, Late: 1, Early: 0, Misses: 0
f39-> Hits: 473, Late: 0, Early: 0, Misses: 0
f3a-> Hits: 185, Late: 192, Early: 0, Misses: 0
f3b-> Hits: 7, Late: 0, Early: 0, Misses: 0
f3c-> Hits: 1638, Late: 216, Early: 0, Misses: 6
f3d-> Hits: 1770, Late: 0, Early: 0, Misses: 0
f3e-> Hits: 100, Late: 0, Early: 0, Misses: 0
f3f-> Hits: 7372, Late: 2053, Early: 0, Misses: 1
f40-> Hits: 16128, Late: 200, Early: 0, Misses: 6
f43-> Hits: 25, Late: 0, Early: 0, Misses: 0
f44-> Hits: 67, Late: 6, Early: 0, Misses: 0
f45-> Hits: 6, Late: 2, Early: 0, Misses: 0
f46-> Hits: 0, Late: 5, Early: 0, Misses: 0
f47-> Hits: 4582, Late: 189, Early: 0, Misses: 0
f48-> Hits: 1357, Late: 246, Early: 0, Misses: 5
f49-> Hits: 16074, Late: 1, Early: 0, Misses: 4
f4a-> Hits: 4320, Late: 633, Early: 0, Misses: 0
f4b-> Hits: 2360, Late: 8, Early: 0, Misses: 0
f4c-> Hits: 13, Late: 0, Early: 0, Misses: 0
f4d-> Hits: 282, Late: 18, Early: 0, Misses: 0
f4e-> Hits: 3692, Late: 0, Early: 0, Misses: 0
f4f-> Hits: 254, Late: 0, Early: 0, Misses: 0
f50-> Hits: 183, Late: 2, Early: 0, Misses: 0
f51-> Hits: 9, Late: 0, Early: 0, Misses: 0
f52-> Hits: 3085, Late: 5, Early: 0, Misses: 0
f53-> Hits: 1178, Late: 0, Early: 0, Misses: 0
f54-> Hits: 2359, Late: 227, Early: 0, Misses: 0
f56-> Hits: 10, Late: 0, Early: 0, Misses: 0
f57-> Hits: 16834, Late: 4, Early: 0, Misses: 0
f58-> Hits: 760, Late: 0, Early: 0, Misses: 0
f59-> Hits: 748, Late: 0, Early: 0, Misses: 0
f5a-> Hits: 689, Late: 61, Early: 0, Misses: 0
f5b-> Hits: 917, Late: 0, Early: 0, Misses: 0
f5c-> Hits: 4, Late: 0, Early: 0, Misses: 0
f5d-> Hits: 800, Late: 2, Early: 0, Misses: 0
f5e-> Hits: 16085, Late: 0, Early: 0, Misses: 0
f5f-> Hits: 736, Late: 1, Early: 0, Misses: 0
f60-> Hits: 20, Late: 4, Early: 0, Misses: 0
f61-> Hits: 1158, Late: 0, Early: 0, Misses: 0
f62-> Hits: 228, Late: 5, Early: 0, Misses: 0
f63-> Hits: 163, Late: 0, Early: 0, Misses: 0
f65-> Hits: 4, Late: 0, Early: 0, Misses: 0
f66-> Hits: 41, Late: 0, Early: 0, Misses: 0
f67-> Hits: 18, Late: 0, Early: 0, Misses: 0
f68-> Hits: 106, Late: 0, Early: 0, Misses: 0
f69-> Hits: 18, Late: 0, Early: 0, Misses: 0
f6a-> Hits: 50, Late: 0, Early: 0, Misses: 0
f6c-> Hits: 16071, Late: 14, Early: 0, Misses: 0
f6d-> Hits: 10, Late: 0, Early: 0, Misses: 0
f6e-> Hits: 14, Late: 0, Early: 0, Misses: 0
f6f-> Hits: 179, Late: 2, Early: 0, Misses: 0
f70-> Hits: 2320, Late: 1800, Early: 0, Misses: 0
f71-> Hits: 133, Late: 0, Early: 0, Misses: 0
f72-> Hits: 100, Late: 5, Early: 0, Misses: 0
f73-> Hits: 9, Late: 0, Early: 0, Misses: 0
f74-> Hits: 7, Late: 0, Early: 0, Misses: 0
f75-> Hits: 20, Late: 1, Early: 0, Misses: 0
f76-> Hits: 9, Late: 0, Early: 0, Misses: 0
f77-> Hits: 655, Late: 0, Early: 0, Misses: 0
f78-> Hits: 1231, Late: 0, Early: 0, Misses: 0
f79-> Hits: 17, Late: 0, Early: 0, Misses: 0
f7a-> Hits: 61, Late: 1, Early: 0, Misses: 0
f7b-> Hits: 16270, Late: 0, Early: 0, Misses: 0
f7d-> Hits: 53, Late: 0, Early: 0, Misses: 0
f7e-> Hits: 113, Late: 0, Early: 0, Misses: 0
f80-> Hits: 92, Late: 0, Early: 0, Misses: 0
f81-> Hits: 1231, Late: 0, Early: 0, Misses: 0
f82-> Hits: 14312, Late: 1845, Early: 0, Misses: 0
f84-> Hits: 11, Late: 0, Early: 0, Misses: 0
f85-> Hits: 15532, Late: 0, Early: 0, Misses: 0
f86-> Hits: 16065, Late: 0, Early: 0, Misses: 0
f87-> Hits: 111, Late: 0, Early: 0, Misses: 0
f88-> Hits: 1, Late: 0, Early: 0, Misses: 0
f8a-> Hits: 2, Late: 0, Early: 0, Misses: 0
f8b-> Hits: 5692, Late: 497, Early: 0, Misses: 0
f8c-> Hits: 1056, Late: 0, Early: 0, Misses: 0
f8e-> Hits: 4820, Late: 287, Early: 0, Misses: 1
f8f-> Hits: 359, Late: 0, Early: 0, Misses: 0
f90-> Hits: 2847, Late: 9, Early: 0, Misses: 0
f91-> Hits: 5144, Late: 1, Early: 0, Misses: 0
f92-> Hits: 37, Late: 0, Early: 0, Misses: 0
f93-> Hits: 11, Late: 0, Early: 0, Misses: 0
f94-> Hits: 7415, Late: 402, Early: 0, Misses: 3
f95-> Hits: 11, Late: 0, Early: 0, Misses: 0
f96-> Hits: 1434, Late: 5, Early: 0, Misses: 0
f97-> Hits: 505, Late: 1, Early: 0, Misses: 0
f98-> Hits: 6349, Late: 0, Early: 0, Misses: 0
f99-> Hits: 7, Late: 0, Early: 0, Misses: 0
f9a-> Hits: 14, Late: 0, Early: 0, Misses: 0
f9b-> Hits: 1, Late: 0, Early: 0, Misses: 0
f9c-> Hits: 102, Late: 18, Early: 0, Misses: 0
f9d-> Hits: 1168, Late: 0, Early: 0, Misses: 0
f9e-> Hits: 12, Late: 0, Early: 0, Misses: 0
f9f-> Hits: 117, Late: 2, Early: 0, Misses: 0
fa0-> Hits: 943, Late: 17, Early: 0, Misses: 0
fa1-> Hits: 9923, Late: 146, Early: 0, Misses: 16
fa2-> Hits: 4955, Late: 80, Early: 0, Misses: 0
fa3-> Hits: 61, Late: 1, Early: 0, Misses: 0
fa4-> Hits: 2990, Late: 0, Early: 0, Misses: 0
fa5-> Hits: 1051, Late: 0, Early: 0, Misses: 0
fa6-> Hits: 1344, Late: 0, Early: 0, Misses: 0
fa7-> Hits: 392, Late: 0, Early: 0, Misses: 0
fa8-> Hits: 1280, Late: 0, Early: 0, Misses: 0
fa9-> Hits: 117, Late: 0, Early: 0, Misses: 0
faa-> Hits: 2491, Late: 0, Early: 0, Misses: 0
fab-> Hits: 204, Late: 0, Early: 0, Misses: 0
fac-> Hits: 1328, Late: 0, Early: 0, Misses: 0
fad-> Hits: 524, Late: 0, Early: 0, Misses: 0
fae-> Hits: 1676, Late: 0, Early: 0, Misses: 0
faf-> Hits: 300, Late: 0, Early: 0, Misses: 0
fb0-> Hits: 588, Late: 15, Early: 0, Misses: 0
fb1-> Hits: 2, Late: 0, Early: 0, Misses: 0
fb2-> Hits: 355, Late: 0, Early: 0, Misses: 0
fb3-> Hits: 367, Late: 48, Early: 0, Misses: 0
fb4-> Hits: 18957, Late: 17, Early: 0, Misses: 0
fb6-> Hits: 351, Late: 0, Early: 0, Misses: 0
fb7-> Hits: 3875, Late: 2, Early: 0, Misses: 0
fb8-> Hits: 896, Late: 0, Early: 0, Misses: 0
fbb-> Hits: 15998, Late: 6, Early: 0, Misses: 38
fbc-> Hits: 6, Late: 0, Early: 0, Misses: 0
fbd-> Hits: 1896, Late: 0, Early: 0, Misses: 0
fbe-> Hits: 179, Late: 3, Early: 0, Misses: 0
fbf-> Hits: 850, Late: 50, Early: 0, Misses: 0
fc0-> Hits: 2049, Late: 4, Early: 0, Misses: 0
fc1-> Hits: 224, Late: 0, Early: 0, Misses: 0
fc2-> Hits: 4784, Late: 394, Early: 0, Misses: 0
fc3-> Hits: 145, Late: 0, Early: 0, Misses: 0
fc4-> Hits: 678, Late: 0, Early: 0, Misses: 0
fc5-> Hits: 190, Late: 1, Early: 0, Misses: 0
fc6-> Hits: 370, Late: 0, Early: 0, Misses: 0
fc8-> Hits: 7, Late: 0, Early: 0, Misses: 0
fcb-> Hits: 657, Late: 18, Early: 0, Misses: 1
fcc-> Hits: 4872, Late: 373, Early: 0, Misses: 1
fcd-> Hits: 8, Late: 0, Early: 0, Misses: 0
fce-> Hits: 17, Late: 0, Early: 0, Misses: 0
fcf-> Hits: 14, Late: 0, Early: 0, Misses: 0
fd0-> Hits: 6316, Late: 470, Early: 0, Misses: 19
fd1-> Hits: 946, Late: 0, Early: 0, Misses: 0
fd3-> Hits: 2086, Late: 7, Early: 0, Misses: 0
fd4-> Hits: 604, Late: 0, Early: 0, Misses: 0
fd5-> Hits: 29, Late: 0, Early: 0, Misses: 0
fd6-> Hits: 5621, Late: 0, Early: 0, Misses: 0
fd7-> Hits: 45, Late: 0, Early: 0, Misses: 0
fd8-> Hits: 18, Late: 0, Early: 0, Misses: 0
fd9-> Hits: 845, Late: 0, Early: 0, Misses: 0
fda-> Hits: 421, Late: 0, Early: 0, Misses: 0
fdb-> Hits: 4283, Late: 10, Early: 0, Misses: 0
fdc-> Hits: 11, Late: 0, Early: 0, Misses: 0
fdd-> Hits: 13, Late: 0, Early: 0, Misses: 0
fde-> Hits: 10523, Late: 25, Early: 0, Misses: 0
fdf-> Hits: 81, Late: 0, Early: 0, Misses: 0
fe0-> Hits: 3318, Late: 70, Early: 0, Misses: 3
fe1-> Hits: 44, Late: 1, Early: 0, Misses: 0
fe2-> Hits: 59, Late: 0, Early: 0, Misses: 0
fe3-> Hits: 6, Late: 0, Early: 0, Misses: 0
fe4-> Hits: 37, Late: 0, Early: 0, Misses: 0
fe5-> Hits: 9864, Late: 178, Early: 0, Misses: 0
fe7-> Hits: 3481, Late: 0, Early: 0, Misses: 0
fe8-> Hits: 438, Late: 0, Early: 0, Misses: 0
fe9-> Hits: 9777, Late: 0, Early: 0, Misses: 3
fea-> Hits: 128, Late: 2, Early: 0, Misses: 0
feb-> Hits: 648, Late: 0, Early: 0, Misses: 0
fec-> Hits: 15, Late: 0, Early: 0, Misses: 0
fee-> Hits: 2190, Late: 0, Early: 0, Misses: 7
fef-> Hits: 3115, Late: 397, Early: 0, Misses: 0
ff0-> Hits: 10253, Late: 510, Early: 0, Misses: 0
ff1-> Hits: 22, Late: 1, Early: 0, Misses: 0
ff2-> Hits: 756, Late: 248, Early: 0, Misses: 0
ff3-> Hits: 6220, Late: 0, Early: 0, Misses: 0
ff4-> Hits: 646, Late: 0, Early: 0, Misses: 0
ff5-> Hits: 853, Late: 27, Early: 0, Misses: 0
ff6-> Hits: 10, Late: 0, Early: 0, Misses: 0
ff7-> Hits: 517, Late: 8, Early: 0, Misses: 0
ff8-> Hits: 423, Late: 0, Early: 0, Misses: 0
ff9-> Hits: 2258, Late: 0, Early: 0, Misses: 0
ffa-> Hits: 8915, Late: 72, Early: 0, Misses: 0
ffb-> Hits: 38, Late: 0, Early: 0, Misses: 0
ffc-> Hits: 854, Late: 134, Early: 0, Misses: 0
ffd-> Hits: 2, Late: 0, Early: 0, Misses: 0
ffe-> Hits: 6063, Late: 0, Early: 0, Misses: 0
fff-> Hits: 848, Late: 29, Early: 0, Misses: 0
Total misses (from ip) 158714
Total accesses (misses) 16265710 158714
Pref: Addr 0 IP 0 Current 0
 All Calls: 278487
 Critical Calls: 278487
------------------
Depth Distribution
------------------
depth 0: 0
depth 1: 41944
depth 2: 3396
depth 3: 1500
depth 4: 789
depth 5: 392
depth 6: 125
depth 7: 88
depth 8: 69
depth 9: 45
depth 10: 21
depth 11: 5
depth 12: 4
depth 13: 0
depth 14: 0
depth 15: 0
depth 16: 0
depth 17: 0
depth 18: 0
depth 19: 0
depth 20: 0
depth 21: 0
depth 22: 0
depth 23: 0
depth 24: 0
depth 25: 0
depth 26: 0
depth 27: 0
depth 28: 0
depth 29: 0
Total: 48378
-----------------------------
-----------------------------
	Captured at Filter
-----------------------------
depth 0: 0
depth 1: 363
depth 2: 101
depth 3: 47
depth 4: 1
depth 5: 0
depth 6: 0
depth 7: 1
depth 8: 2
depth 9: 2
depth 10: 2
depth 11: 2
depth 12: 0
depth 13: 0
depth 14: 0
depth 15: 0
depth 16: 0
depth 17: 0
depth 18: 0
depth 19: 0
depth 20: 0
depth 21: 0
depth 22: 0
depth 23: 0
depth 24: 0
depth 25: 0
depth 26: 0
depth 27: 0
depth 28: 0
depth 29: 0
-----------------------------
-----------------------------
		Lost at Page
-----------------------------
depth 0: 0
depth 1: 1469
depth 2: 75
depth 3: 63
depth 4: 59
depth 5: 58
depth 6: 21
depth 7: 13
depth 8: 12
depth 9: 10
depth 10: 6
depth 11: 1
depth 12: 1
depth 13: 0
depth 14: 0
depth 15: 0
depth 16: 0
depth 17: 0
depth 18: 0
depth 19: 0
depth 20: 0
depth 21: 0
depth 22: 0
depth 23: 0
depth 24: 0
depth 25: 0
depth 26: 0
depth 27: 0
depth 28: 0
depth 29: 0
-----------------------------
-----------------------------
	Lost due to PQ Size
-----------------------------
0
-----------------------------
ST read accesses: 244803
ST write accesses: 26116
PT read accesses: 2724986
PT write accesses: 330775
FILTER read accesses: 454879
FILTER write accesses: 140745
GHR read accesses: 221947
GHR write accesses: 1636
GHR counter read accesses: 1813290
GHR counter write accesses: 271475
ST tag read accesses: 117399965
ST tag write accesses: 14507046

DRAM Statistics
 CHANNEL 0
 RQ ROW_BUFFER_HIT:      25980  ROW_BUFFER_MISS:      77218
 DBUS_CONGESTED:         22
 WQ ROW_BUFFER_HIT:       1501  ROW_BUFFER_MISS:       7038  FULL:          0

 AVG_CONGESTED_CYCLE: 4
 All warmup complete: 2
Channel 0 Bank busy for read cycles: 0
Channel 0 Bank busy for write cycles: 0
Channel 0
Rank 0
0banks busy for read cycles: 101110398
0banks busy for write cycles: 7136
1banks busy for read cycles: 6872842
1banks busy for write cycles: 1186630
2banks busy for read cycles: 2022988
2banks busy for write cycles: 137152
3banks busy for read cycles: 426942
3banks busy for write cycles: 25647
4banks busy for read cycles: 101065
4banks busy for write cycles: 5163
5banks busy for read cycles: 29316
5banks busy for write cycles: 1260
6banks busy for read cycles: 10112
6banks busy for write cycles: 194
7banks busy for read cycles: 5358
7banks busy for write cycles: 5
8banks busy for read cycles: 4145
8banks busy for write cycles: 143

CPU 0 Branch Prediction Accuracy: 96.2601% MPKI: 6.26918 Average ROB Occupancy at Mispredict: 28.6322
Branch types
NOT_BRANCH: 41618174 83.2363%
BRANCH_DIRECT_JUMP: 1045243 2.09049%
BRANCH_INDIRECT: 321894 0.643788%
BRANCH_CONDITIONAL: 6044455 12.0889%
BRANCH_DIRECT_CALL: 381768 0.763536%
BRANCH_INDIRECT_CALL: 103186 0.206372%
BRANCH_RETURN: 484954 0.969908%
BRANCH_OTHER: 0 0%

DRAM PAGES: 1048576
Allocated PAGES: 5057
