Initialize SIGNATURE TABLE
ST_SET: 1
ST_WAY: 256
ST_TAG_BIT: 16
ST_TAG_MASK: ffff

Initialize PATTERN TABLE
PT_SET: 512
PT_WAY: 4
SIG_DELTA_BIT: 7
C_SIG_BIT: 4
C_DELTA_BIT: 4

Initialize PREFETCH FILTER
FILTER_SET: 1024

*** ChampSim Multicore Out-of-Order Simulator ***

Warmup Instructions: 50000000
Simulation Instructions: 50000000
Number of CPUs: 1
LLC sets: 2048
LLC ways: 16
Off-chip DRAM Size: 4096 MB Channels: 1 Width: 64-bit Data Rate: 6400 MT/s
CPU 0 runs ./tracer/traces/621.wrf_s-6673B.champsimtrace.xz
.xz
CPU 0 Bimodal branch predictor
BTB has LRU replacement policy
ITLB has LRU replacement policy
DTLB has LRU replacement policy
STLB has LRU replacement policy
L1I has LRU replacement policy
CPU 0 L1D Berti prefetcher
L1D has LRU replacement policy
ST_WAYS: 256
PT_SETS: 512
L2C has LRU replacement policy
Initialize Hawkeye state
Heartbeat CPU 0 instructions: 10000002 cycles: 3559648 heartbeat IPC: 2.80927 cumulative IPC: 2.80927 (Simulation time: 0 hr 0 min 46 sec) 
Heartbeat CPU 0 instructions: 20000003 cycles: 6464663 heartbeat IPC: 3.44232 cumulative IPC: 3.09374 (Simulation time: 0 hr 1 min 39 sec) 
Heartbeat CPU 0 instructions: 30000000 cycles: 9284519 heartbeat IPC: 3.54628 cumulative IPC: 3.23119 (Simulation time: 0 hr 2 min 37 sec) 
Heartbeat CPU 0 instructions: 40000002 cycles: 12169977 heartbeat IPC: 3.46566 cumulative IPC: 3.28678 (Simulation time: 0 hr 3 min 35 sec) 
Heartbeat CPU 0 instructions: 50000000 cycles: 15071722 heartbeat IPC: 3.4462 cumulative IPC: 3.31747 (Simulation time: 0 hr 4 min 37 sec) 

Warmup complete CPU 0 instructions: 50000004 cycles: 15071723 (Simulation time: 0 hr 4 min 37 sec) 

Heartbeat CPU 0 instructions: 60000001 cycles: 27966386 heartbeat IPC: 0.775515 cumulative IPC: 0.775514 (Simulation time: 0 hr 6 min 16 sec) 
Heartbeat CPU 0 instructions: 70000000 cycles: 43312990 heartbeat IPC: 0.65161 cumulative IPC: 0.708183 (Simulation time: 0 hr 7 min 36 sec) 
Heartbeat CPU 0 instructions: 80000000 cycles: 55182238 heartbeat IPC: 0.842513 cumulative IPC: 0.747933 (Simulation time: 0 hr 8 min 40 sec) 
Heartbeat CPU 0 instructions: 90000003 cycles: 68082815 heartbeat IPC: 0.775159 cumulative IPC: 0.754559 (Simulation time: 0 hr 9 min 51 sec) 
Heartbeat CPU 0 instructions: 100000000 cycles: 83938902 heartbeat IPC: 0.630672 cumulative IPC: 0.726035 (Simulation time: 0 hr 11 min 14 sec) 
Finished CPU 0 instructions: 50000002 cycles: 68867182 cumulative IPC: 0.726035 (Simulation time: 0 hr 11 min 14 sec) 

ChampSim completed all CPUs

Region of Interest Statistics

CPU 0 cumulative IPC: 0.726035 instructions: 50000002 cycles: 68867182
ITLB TOTAL     ACCESS:    7542455  HIT:    7542374  MISS:         81  HIT %:    99.9989  MISS %: 0.00107392   MPKI: 0.00162
ITLB LOAD TRANSLATION ACCESS:    7542455  HIT:    7542374  MISS:         81  HIT %:    99.9989  MISS %: 0.00107392   MPKI: 0.00162
ITLB PREFETCH  REQUESTED:          0  ISSUED:          0  USEFUL:          0  USELESS:          0
ITLB USEFUL LOAD PREFETCHES:          0 PREFETCH ISSUED TO LOWER LEVEL:          0  ACCURACY: -nan
ITLB TIMELY PREFETCHES:          0 LATE PREFETCHES: 0 DROPPED PREFETCHES: 0
ITLB PREFETCHES SAME FILL-ORIGIN LEVEL: 0 DIFFERENT FILL-ORIGIN LEVEL: 0
ITLB AVERAGE MISS LATENCY: 239.444 cycles
ITLB RQ	ACCESS:    9396323	FORWARD:          0	MERGED:    1853839	TO_CACHE:    7542484

DTLB TOTAL     ACCESS:   14875661  HIT:   14727878  MISS:     147783  HIT %:    99.0065  MISS %:   0.993455   MPKI: 2.95566
DTLB LOAD TRANSLATION ACCESS:   14875661  HIT:   14727878  MISS:     147783  HIT %:    99.0065  MISS %:   0.993455   MPKI: 2.95566
DTLB PREFETCH  REQUESTED:          0  ISSUED:          0  USEFUL:          0  USELESS:          0
DTLB USEFUL LOAD PREFETCHES:          0 PREFETCH ISSUED TO LOWER LEVEL:          0  ACCURACY: -nan
DTLB TIMELY PREFETCHES:          0 LATE PREFETCHES: 0 DROPPED PREFETCHES: 0
DTLB PREFETCHES SAME FILL-ORIGIN LEVEL: 0 DIFFERENT FILL-ORIGIN LEVEL: 0
DTLB AVERAGE MISS LATENCY: 15.9268 cycles
DTLB RQ	ACCESS:   16833469	FORWARD:          0	MERGED:    1939293	TO_CACHE:   14894176

STLB TOTAL     ACCESS:    9419182  HIT:    9403888  MISS:      15294  HIT %:    99.8376  MISS %:   0.162371   MPKI: 0.30588
STLB LOAD TRANSLATION ACCESS:     147864  HIT:     143965  MISS:       3899  HIT %:    97.3631  MISS %:    2.63688   MPKI: 0.07798
STLB TRANSLATION FROM L1D PREFETCHER ACCESS:    9271318  HIT:    9259923  MISS:      11395  HIT %:    99.8771  MISS %:   0.122906   MPKI: 0.2279
STLB PREFETCH  REQUESTED:          0  ISSUED:          0  USEFUL:      11389  USELESS:          6
STLB USEFUL LOAD PREFETCHES:      11389 PREFETCH ISSUED TO LOWER LEVEL:          0  ACCURACY: inf
STLB TIMELY PREFETCHES:      11389 LATE PREFETCHES: 422 DROPPED PREFETCHES: 2082
STLB PREFETCHES SAME FILL-ORIGIN LEVEL: 0 DIFFERENT FILL-ORIGIN LEVEL: 0
STLB AVERAGE MISS LATENCY: 66463.7 cycles
STLB RQ	ACCESS:   10945144	FORWARD:          0	MERGED:    1520868	TO_CACHE:    9424276

STLB Hit, L1D data hit: 0
STLB Hit, L2C data hit: 0
STLB Hit, LLC data hit: 0
STLB Hit, LLC data miss: 0
STLB STLB hints to L2: 0
L1D TOTAL     ACCESS:   26398011  HIT:   24554690  MISS:    1843321  HIT %:    93.0172  MISS %:     6.9828   MPKI: 36.8664
L1D LOAD      ACCESS:   13231099  HIT:   12948582  MISS:     282517  HIT %:    97.8648  MISS %:    2.13525   MPKI: 5.65034
L1D RFO       ACCESS:    3125657  HIT:    2916236  MISS:     209421  HIT %:    93.2999  MISS %:    6.70006   MPKI: 4.18842
L1D PREFETCH  ACCESS:   10041255  HIT:    8689872  MISS:    1351383  HIT %:    86.5417  MISS %:    13.4583   MPKI: 27.0277
AGUS PREFETCH L1 MISS: 0
L1D PREFETCH  REQUESTED:   22579694  ISSUED:   22579694  USEFUL:    1232709  USELESS:     118738
L1D USEFUL LOAD PREFETCHES:    1232709 PREFETCH ISSUED TO LOWER LEVEL:    1438990  ACCURACY: 85.6649
L1D TIMELY PREFETCHES:    1232709 LATE PREFETCHES: 65688 DROPPED PREFETCHES: 2244
L1D PREFETCHES SAME FILL-ORIGIN LEVEL: 1438990 DIFFERENT FILL-ORIGIN LEVEL: 0
L1D AVERAGE MISS LATENCY: 2.02757e+06 cycles
L1D RQ	ACCESS:   16713375	FORWARD:          0	MERGED:    3356060	TO_CACHE:   13348624
L1D WQ	ACCESS:    3489006	FORWARD:       8842	MERGED:       4161	TO_CACHE:    3484845
L1D PQ	ACCESS:   11782414	FORWARD:          0	MERGED:     984983	TO_CACHE:   10797280

L1D UNIQUE REGIONS ACCESSED: 0
L1D REGIONS CONFLICTS: 0
L1D Cross Page Prefetch Requests: 0
L1D Same Page Prefetch Requests: 20692000
L1D ROI Sum of L1D PQ occupancy: 205722178
L1D PREFETCHES PUSHED FROM L2C: 0
L1I TOTAL     ACCESS:    9394942  HIT:    9392164  MISS:       2778  HIT %:    99.9704  MISS %:  0.0295691   MPKI: 0.05556
L1I LOAD      ACCESS:    9394942  HIT:    9392164  MISS:       2778  HIT %:    99.9704  MISS %:  0.0295691   MPKI: 0.05556
L1I PREFETCH  REQUESTED:          0  ISSUED:          0  USEFUL:          0  USELESS:          0
L1I USEFUL LOAD PREFETCHES:          0 PREFETCH ISSUED TO LOWER LEVEL:          0  ACCURACY: -nan
L1I TIMELY PREFETCHES:          0 LATE PREFETCHES: 0 DROPPED PREFETCHES: 0
L1I PREFETCHES SAME FILL-ORIGIN LEVEL: 0 DIFFERENT FILL-ORIGIN LEVEL: 0
L1I AVERAGE MISS LATENCY: 226.995 cycles
L1I RQ	ACCESS:   12962675	FORWARD:          0	MERGED:    3566352	TO_CACHE:    9396323

BTB TOTAL     ACCESS:    2203354  HIT:    2197120  MISS:       6234  HIT %:    99.7171  MISS %:   0.282932   MPKI: 0.12468
BTB BRANCH_DIRECT_JUMP	ACCESS:       3916  HIT:       3875  MISS:         41
BTB BRANCH_INDIRECT	ACCESS:          0  HIT:          0  MISS:          0
BTB BRANCH_CONDITIONAL	ACCESS:    2181746  HIT:    2181274  MISS:        472
BTB BRANCH_DIRECT_CALL	ACCESS:       8847  HIT:       8610  MISS:        237
BTB BRANCH_INDIRECT_CALL	ACCESS:          0  HIT:          0  MISS:          0
BTB BRANCH_RETURN	ACCESS:       8845  HIT:       3361  MISS:       5484
BTB BRANCH_OTHER ACCESS:           0  HIT:          0  MISS:          0

L2C TOTAL     ACCESS:    4043692  HIT:    2714527  MISS:    1329165  HIT %:    67.1299  MISS %:    32.8701   MPKI: 26.5833
L2C LOAD      ACCESS:     219603  HIT:      89961  MISS:     129642  HIT %:    40.9653  MISS %:    59.0347   MPKI: 2.59284
L2C DATA LOAD MPKI: 2.53728
L2C INSTRUCTION LOAD MPKI: 0.05556
L2C RFO       ACCESS:     209312  HIT:     101406  MISS:     107906  HIT %:    48.4473  MISS %:    51.5527   MPKI: 2.15812
L2C PREFETCH  ACCESS:    2989477  HIT:    1900715  MISS:    1088762  HIT %:    63.5802  MISS %:    36.4198   MPKI: 21.7752
AGUS PREFETCH L1 MISS: 0
L2C DATA PREFETCH MPKI: 21.7752
L2C INSTRUCTION PREFETCH MPKI: 0
L2C WRITEBACK ACCESS:     607783  HIT:     607570  MISS:        213  HIT %:     99.965  MISS %:  0.0350454   MPKI: 0.00426
L2C LOAD TRANSLATION ACCESS:       3596  HIT:       2661  MISS:        935  HIT %:    73.9989  MISS %:    26.0011   MPKI: 0.0187
L2C TRANSLATION FROM L1D PREFETCHER ACCESS:      13921  HIT:      12214  MISS:       1707  HIT %:    87.7379  MISS %:    12.2621   MPKI: 0.03414
L2C PREFETCH  REQUESTED:    5393393  ISSUED:    4852993  USEFUL:      56555  USELESS:    1041062
L2C USEFUL LOAD PREFETCHES:      56555 PREFETCH ISSUED TO LOWER LEVEL:    4120699  ACCURACY: 1.37246
L2C TIMELY PREFETCHES:      56555 LATE PREFETCHES: 448 DROPPED PREFETCHES: 0
L2C PREFETCHES SAME FILL-ORIGIN LEVEL: 320325 DIFFERENT FILL-ORIGIN LEVEL: 3030559
L2C AVERAGE MISS LATENCY: 193.31 cycles
L2C RQ	ACCESS:     446453	FORWARD:          0	MERGED:          0	TO_CACHE:     446442
L2C WQ	ACCESS:     607788	FORWARD:         89	MERGED:          0	TO_CACHE:     607788
L2C PQ	ACCESS:    6270166	FORWARD:          0	MERGED:     209798	TO_CACHE:    6060290

L2C Instructions Evicting Data 2760
L2C Translations Evicting Data 2641
L2C Data Evicting Data 1318136
L2C Instructions Evicting Instructions 5
L2C Translations Evicting Instructions 1
L2C Data Evicting Instructions 2772
L2C Instructions Evicting Translations 13
L2C Translations Evicting Translations 0
L2C Data Evicting Translations 2624
L2C Dense regions hint from L2: 0
PSCL5 TOTAL     ACCESS:      17402  HIT:      17402  MISS:          0  HIT %:        100  MISS %:          0   MPKI: 0
PSCL5 LOAD TRANSLATION ACCESS:       3503  HIT:       3503  MISS:          0  HIT %:        100  MISS %:          0   MPKI: 0
PSCL5 TRANSLATION FROM L1D PREFETCHER ACCESS:      13899  HIT:      13899  MISS:          0  HIT %:        100  MISS %:          0   MPKI: 0
PSCL5 PREFETCH  REQUESTED:          0  ISSUED:          0  USEFUL:          0  USELESS:          0
PSCL5 USEFUL LOAD PREFETCHES:          0 PREFETCH ISSUED TO LOWER LEVEL:          0  ACCURACY: -nan
PSCL5 TIMELY PREFETCHES:          0 LATE PREFETCHES: 0 DROPPED PREFETCHES: 0
PSCL5 PREFETCHES SAME FILL-ORIGIN LEVEL: 0 DIFFERENT FILL-ORIGIN LEVEL: 0

PSCL4 TOTAL     ACCESS:      17402  HIT:      17402  MISS:          0  HIT %:        100  MISS %:          0   MPKI: 0
PSCL4 LOAD TRANSLATION ACCESS:       3503  HIT:       3503  MISS:          0  HIT %:        100  MISS %:          0   MPKI: 0
PSCL4 TRANSLATION FROM L1D PREFETCHER ACCESS:      13899  HIT:      13899  MISS:          0  HIT %:        100  MISS %:          0   MPKI: 0
PSCL4 PREFETCH  REQUESTED:          0  ISSUED:          0  USEFUL:          0  USELESS:          0
PSCL4 USEFUL LOAD PREFETCHES:          0 PREFETCH ISSUED TO LOWER LEVEL:          0  ACCURACY: -nan
PSCL4 TIMELY PREFETCHES:          0 LATE PREFETCHES: 0 DROPPED PREFETCHES: 0
PSCL4 PREFETCHES SAME FILL-ORIGIN LEVEL: 0 DIFFERENT FILL-ORIGIN LEVEL: 0

PSCL3 TOTAL     ACCESS:      17402  HIT:      17402  MISS:          0  HIT %:        100  MISS %:          0   MPKI: 0
PSCL3 LOAD TRANSLATION ACCESS:       3503  HIT:       3503  MISS:          0  HIT %:        100  MISS %:          0   MPKI: 0
PSCL3 TRANSLATION FROM L1D PREFETCHER ACCESS:      13899  HIT:      13899  MISS:          0  HIT %:        100  MISS %:          0   MPKI: 0
PSCL3 PREFETCH  REQUESTED:          0  ISSUED:          0  USEFUL:          0  USELESS:          0
PSCL3 USEFUL LOAD PREFETCHES:          0 PREFETCH ISSUED TO LOWER LEVEL:          0  ACCURACY: -nan
PSCL3 TIMELY PREFETCHES:          0 LATE PREFETCHES: 0 DROPPED PREFETCHES: 0
PSCL3 PREFETCHES SAME FILL-ORIGIN LEVEL: 0 DIFFERENT FILL-ORIGIN LEVEL: 0

PSCL2 TOTAL     ACCESS:      17402  HIT:      17287  MISS:        115  HIT %:    99.3392  MISS %:   0.660844   MPKI: 0.0023
PSCL2 LOAD TRANSLATION ACCESS:       3525  HIT:       3410  MISS:        115  HIT %:    96.7376  MISS %:    3.26241   MPKI: 0.0023
PSCL2 TRANSLATION FROM L1D PREFETCHER ACCESS:      13877  HIT:      13877  MISS:          0  HIT %:        100  MISS %:          0   MPKI: 0
PSCL2 PREFETCH  REQUESTED:          0  ISSUED:          0  USEFUL:          0  USELESS:          0
PSCL2 USEFUL LOAD PREFETCHES:          0 PREFETCH ISSUED TO LOWER LEVEL:          0  ACCURACY: -nan
PSCL2 TIMELY PREFETCHES:          0 LATE PREFETCHES: 0 DROPPED PREFETCHES: 0
PSCL2 PREFETCHES SAME FILL-ORIGIN LEVEL: 0 DIFFERENT FILL-ORIGIN LEVEL: 0

LLC TOTAL     ACCESS:    4221433  HIT:    2820767  MISS:    1400666  HIT %:    66.8201  MISS %:    33.1799   MPKI: 28.0133
LLC LOAD      ACCESS:     129194  HIT:      76025  MISS:      53169  HIT %:    58.8456  MISS %:    41.1544   MPKI: 1.06338
LLC RFO       ACCESS:     107906  HIT:       2403  MISS:     105503  HIT %:    2.22694  MISS %:    97.7731   MPKI: 2.11006
LLC PREFETCH  ACCESS:    3546249  HIT:    2421304  MISS:    1124945  HIT %:    68.2779  MISS %:    31.7221   MPKI: 22.4989
AGUS PREFETCH L1 MISS: 0
LLC WRITEBACK ACCESS:     435442  HIT:     320915  MISS:     114527  HIT %:    73.6987  MISS %:    26.3013   MPKI: 2.29054
LLC LOAD TRANSLATION ACCESS:        935  HIT:         30  MISS:        905  HIT %:    3.20856  MISS %:    96.7914   MPKI: 0.0181
LLC TRANSLATION FROM L1D PREFETCHER ACCESS:       1707  HIT:         90  MISS:       1617  HIT %:    5.27241  MISS %:    94.7276   MPKI: 0.03234
LLC PREFETCH  REQUESTED:          0  ISSUED:          0  USEFUL:      76462  USELESS:    1055267
LLC USEFUL LOAD PREFETCHES:      76462 PREFETCH ISSUED TO LOWER LEVEL:    1136283  ACCURACY: 6.72913
LLC TIMELY PREFETCHES:      76462 LATE PREFETCHES: 11338 DROPPED PREFETCHES: 0
LLC PREFETCHES SAME FILL-ORIGIN LEVEL: 916670 DIFFERENT FILL-ORIGIN LEVEL: 0
LLC AVERAGE MISS LATENCY: 296.462 cycles
LLC RQ	ACCESS:     239751	FORWARD:          0	MERGED:          0	TO_CACHE:     239751
LLC WQ	ACCESS:     435450	FORWARD:          0	MERGED:          0	TO_CACHE:     435450
LLC PQ	ACCESS:    4115973	FORWARD:          0	MERGED:      25168	TO_CACHE:    4090805

LLC Dense regions hint to LLC: 0

RAW hits: 52347
Loads Generated: 16765722
Loads sent to L1D: 16713375
Stores Generated: 3489005
Stores sent to L1D: 3489006
Major fault: 0 Minor fault: 7750
Allocated PAGES: 7750
CPU 0 L1D berti prefetcher final stats
0-> Hits: 171236, Late: 1677, Early: 0, Misses: 1337
1-> Hits: 3, Late: 0, Early: 0, Misses: 0
2-> Hits: 6, Late: 2, Early: 0, Misses: 0
3-> Hits: 50865, Late: 2353, Early: 0, Misses: 22
4-> Hits: 35, Late: 0, Early: 0, Misses: 0
5-> Hits: 173, Late: 4, Early: 0, Misses: 0
6-> Hits: 1564, Late: 1, Early: 0, Misses: 0
7-> Hits: 4, Late: 0, Early: 0, Misses: 0
8-> Hits: 159, Late: 9, Early: 0, Misses: 4
9-> Hits: 53400, Late: 0, Early: 0, Misses: 0
a-> Hits: 23996, Late: 7, Early: 0, Misses: 0
b-> Hits: 3150, Late: 1, Early: 0, Misses: 0
c-> Hits: 1558, Late: 3, Early: 0, Misses: 0
d-> Hits: 124, Late: 0, Early: 0, Misses: 0
e-> Hits: 1560, Late: 1, Early: 0, Misses: 0
10-> Hits: 23147, Late: 1643, Early: 0, Misses: 22
11-> Hits: 59, Late: 1, Early: 0, Misses: 0
12-> Hits: 17361, Late: 0, Early: 0, Misses: 0
13-> Hits: 57768, Late: 117, Early: 0, Misses: 119
14-> Hits: 1, Late: 0, Early: 0, Misses: 0
15-> Hits: 0, Late: 1, Early: 0, Misses: 0
16-> Hits: 11, Late: 0, Early: 0, Misses: 0
17-> Hits: 22465, Late: 7, Early: 0, Misses: 0
18-> Hits: 117, Late: 1, Early: 0, Misses: 0
19-> Hits: 1799, Late: 1, Early: 0, Misses: 9
1b-> Hits: 1632, Late: 2, Early: 0, Misses: 0
1c-> Hits: 1562, Late: 0, Early: 0, Misses: 0
1d-> Hits: 94136, Late: 1, Early: 0, Misses: 0
1e-> Hits: 4, Late: 0, Early: 0, Misses: 0
1f-> Hits: 5, Late: 0, Early: 0, Misses: 0
20-> Hits: 346, Late: 2, Early: 0, Misses: 1
21-> Hits: 64, Late: 0, Early: 0, Misses: 0
23-> Hits: 61, Late: 0, Early: 0, Misses: 0
24-> Hits: 3142, Late: 0, Early: 0, Misses: 0
25-> Hits: 110804, Late: 11, Early: 0, Misses: 0
26-> Hits: 121, Late: 0, Early: 0, Misses: 0
27-> Hits: 1564, Late: 0, Early: 0, Misses: 0
28-> Hits: 0, Late: 1, Early: 0, Misses: 0
29-> Hits: 2, Late: 0, Early: 0, Misses: 0
2a-> Hits: 82449, Late: 0, Early: 0, Misses: 0
2b-> Hits: 60, Late: 1, Early: 0, Misses: 48
2c-> Hits: 12, Late: 8, Early: 0, Misses: 0
2d-> Hits: 1, Late: 0, Early: 0, Misses: 0
2e-> Hits: 29, Late: 1, Early: 0, Misses: 0
2f-> Hits: 1334, Late: 671, Early: 0, Misses: 0
30-> Hits: 71, Late: 1, Early: 0, Misses: 0
32-> Hits: 3, Late: 0, Early: 0, Misses: 0
33-> Hits: 3166, Late: 0, Early: 0, Misses: 0
34-> Hits: 7, Late: 0, Early: 0, Misses: 0
35-> Hits: 118, Late: 0, Early: 0, Misses: 0
36-> Hits: 3, Late: 4, Early: 0, Misses: 4
38-> Hits: 89, Late: 0, Early: 0, Misses: 0
39-> Hits: 1, Late: 0, Early: 0, Misses: 0
3b-> Hits: 13, Late: 1, Early: 0, Misses: 22
3e-> Hits: 228, Late: 0, Early: 0, Misses: 0
3f-> Hits: 204, Late: 0, Early: 0, Misses: 0
40-> Hits: 438, Late: 6, Early: 0, Misses: 0
41-> Hits: 2, Late: 0, Early: 0, Misses: 0
43-> Hits: 60, Late: 1, Early: 0, Misses: 22
44-> Hits: 285, Late: 2, Early: 0, Misses: 0
45-> Hits: 1280, Late: 505, Early: 0, Misses: 0
46-> Hits: 19, Late: 0, Early: 0, Misses: 0
47-> Hits: 1, Late: 0, Early: 0, Misses: 0
48-> Hits: 114, Late: 0, Early: 0, Misses: 1
49-> Hits: 0, Late: 1, Early: 0, Misses: 0
4a-> Hits: 35767, Late: 0, Early: 0, Misses: 0
4b-> Hits: 147, Late: 1, Early: 0, Misses: 0
4e-> Hits: 1, Late: 0, Early: 0, Misses: 0
4f-> Hits: 1627, Late: 1, Early: 0, Misses: 0
50-> Hits: 0, Late: 3, Early: 0, Misses: 0
51-> Hits: 127, Late: 0, Early: 0, Misses: 0
52-> Hits: 3264, Late: 3, Early: 0, Misses: 0
53-> Hits: 61495, Late: 0, Early: 0, Misses: 0
54-> Hits: 287, Late: 0, Early: 0, Misses: 0
55-> Hits: 1, Late: 0, Early: 0, Misses: 0
56-> Hits: 1, Late: 0, Early: 0, Misses: 0
57-> Hits: 127, Late: 0, Early: 0, Misses: 0
58-> Hits: 122, Late: 0, Early: 0, Misses: 0
59-> Hits: 3242, Late: 271, Early: 0, Misses: 0
5a-> Hits: 1, Late: 0, Early: 0, Misses: 0
5b-> Hits: 6, Late: 0, Early: 0, Misses: 13
5d-> Hits: 1, Late: 2, Early: 0, Misses: 0
5e-> Hits: 60, Late: 1, Early: 0, Misses: 0
5f-> Hits: 309, Late: 0, Early: 0, Misses: 0
60-> Hits: 6, Late: 1, Early: 0, Misses: 0
61-> Hits: 0, Late: 2, Early: 0, Misses: 0
63-> Hits: 1359, Late: 0, Early: 0, Misses: 0
64-> Hits: 1621, Late: 2, Early: 0, Misses: 0
66-> Hits: 62, Late: 0, Early: 0, Misses: 0
67-> Hits: 1501, Late: 163, Early: 0, Misses: 0
68-> Hits: 60079, Late: 0, Early: 0, Misses: 0
69-> Hits: 1, Late: 0, Early: 0, Misses: 0
6a-> Hits: 1, Late: 0, Early: 0, Misses: 0
6b-> Hits: 281, Late: 0, Early: 0, Misses: 0
6c-> Hits: 61, Late: 0, Early: 0, Misses: 0
6d-> Hits: 100080, Late: 1101, Early: 0, Misses: 0
6e-> Hits: 1, Late: 0, Early: 0, Misses: 0
6f-> Hits: 3, Late: 0, Early: 0, Misses: 0
70-> Hits: 22969, Late: 4065, Early: 0, Misses: 0
71-> Hits: 1478, Late: 466, Early: 0, Misses: 0
72-> Hits: 113880, Late: 0, Early: 0, Misses: 0
73-> Hits: 117, Late: 0, Early: 0, Misses: 0
74-> Hits: 5743, Late: 1444, Early: 0, Misses: 0
75-> Hits: 1580, Late: 0, Early: 0, Misses: 0
76-> Hits: 1, Late: 1, Early: 0, Misses: 0
77-> Hits: 229, Late: 0, Early: 0, Misses: 0
78-> Hits: 323, Late: 0, Early: 0, Misses: 1
79-> Hits: 23110, Late: 5300, Early: 0, Misses: 0
7a-> Hits: 96386, Late: 25, Early: 0, Misses: 0
7b-> Hits: 109, Late: 2, Early: 0, Misses: 0
7d-> Hits: 5728, Late: 1711, Early: 0, Misses: 0
7e-> Hits: 849, Late: 0, Early: 0, Misses: 0
7f-> Hits: 1593, Late: 0, Early: 0, Misses: 0
80-> Hits: 152, Late: 0, Early: 0, Misses: 1
81-> Hits: 59, Late: 0, Early: 0, Misses: 0
82-> Hits: 42253, Late: 0, Early: 0, Misses: 1
83-> Hits: 1392, Late: 197, Early: 0, Misses: 0
84-> Hits: 341, Late: 2, Early: 0, Misses: 0
85-> Hits: 6, Late: 0, Early: 0, Misses: 0
86-> Hits: 1503, Late: 2, Early: 0, Misses: 0
87-> Hits: 96745, Late: 0, Early: 0, Misses: 0
88-> Hits: 9, Late: 0, Early: 0, Misses: 0
89-> Hits: 1, Late: 1, Early: 0, Misses: 0
8a-> Hits: 58, Late: 0, Early: 0, Misses: 0
8b-> Hits: 1532, Late: 2, Early: 0, Misses: 0
8c-> Hits: 0, Late: 2, Early: 0, Misses: 0
8d-> Hits: 10, Late: 3, Early: 0, Misses: 2
8f-> Hits: 101517, Late: 1, Early: 0, Misses: 3
90-> Hits: 0, Late: 1, Early: 0, Misses: 0
91-> Hits: 113, Late: 0, Early: 0, Misses: 0
93-> Hits: 2755, Late: 2, Early: 0, Misses: 6
94-> Hits: 1, Late: 0, Early: 0, Misses: 0
95-> Hits: 3, Late: 2, Early: 0, Misses: 0
96-> Hits: 1, Late: 0, Early: 0, Misses: 0
97-> Hits: 292, Late: 0, Early: 0, Misses: 0
98-> Hits: 3135, Late: 0, Early: 0, Misses: 0
99-> Hits: 117, Late: 0, Early: 0, Misses: 0
9b-> Hits: 2, Late: 0, Early: 0, Misses: 0
9c-> Hits: 113882, Late: 2, Early: 0, Misses: 0
9d-> Hits: 1832, Late: 2, Early: 0, Misses: 0
9e-> Hits: 1, Late: 0, Early: 0, Misses: 0
9f-> Hits: 269, Late: 0, Early: 0, Misses: 0
a0-> Hits: 2276, Late: 134, Early: 0, Misses: 0
a1-> Hits: 0, Late: 2, Early: 0, Misses: 0
a3-> Hits: 1379, Late: 0, Early: 0, Misses: 0
a4-> Hits: 2382, Late: 0, Early: 0, Misses: 1
a5-> Hits: 4, Late: 2, Early: 0, Misses: 0
a6-> Hits: 4136, Late: 16, Early: 0, Misses: 0
a7-> Hits: 353, Late: 0, Early: 0, Misses: 0
a8-> Hits: 1, Late: 0, Early: 0, Misses: 1
a9-> Hits: 232, Late: 0, Early: 0, Misses: 0
aa-> Hits: 2, Late: 0, Early: 0, Misses: 0
ab-> Hits: 1621, Late: 0, Early: 0, Misses: 0
ac-> Hits: 114515, Late: 0, Early: 0, Misses: 1
ad-> Hits: 2, Late: 0, Early: 0, Misses: 0
ae-> Hits: 3134, Late: 0, Early: 0, Misses: 0
af-> Hits: 1012, Late: 0, Early: 0, Misses: 0
b0-> Hits: 8479, Late: 249, Early: 0, Misses: 0
b1-> Hits: 1477, Late: 2, Early: 0, Misses: 0
b2-> Hits: 3, Late: 0, Early: 0, Misses: 0
b3-> Hits: 0, Late: 1, Early: 0, Misses: 0
b4-> Hits: 3131, Late: 117, Early: 0, Misses: 0
b5-> Hits: 1631, Late: 1, Early: 0, Misses: 0
b6-> Hits: 991, Late: 11, Early: 0, Misses: 2
b7-> Hits: 629, Late: 0, Early: 0, Misses: 0
b8-> Hits: 437, Late: 0, Early: 0, Misses: 0
b9-> Hits: 98, Late: 0, Early: 0, Misses: 0
bc-> Hits: 408, Late: 0, Early: 0, Misses: 0
bd-> Hits: 3145, Late: 106, Early: 0, Misses: 0
be-> Hits: 116, Late: 0, Early: 0, Misses: 0
bf-> Hits: 310, Late: 0, Early: 0, Misses: 0
c0-> Hits: 0, Late: 1, Early: 0, Misses: 0
c1-> Hits: 1331, Late: 1, Early: 0, Misses: 0
c2-> Hits: 2, Late: 0, Early: 0, Misses: 0
c3-> Hits: 1595, Late: 0, Early: 0, Misses: 0
c4-> Hits: 2406, Late: 51, Early: 0, Misses: 0
c5-> Hits: 1, Late: 0, Early: 0, Misses: 0
c6-> Hits: 119, Late: 0, Early: 0, Misses: 0
c7-> Hits: 223, Late: 0, Early: 0, Misses: 16
c8-> Hits: 6426, Late: 0, Early: 0, Misses: 0
c9-> Hits: 2, Late: 0, Early: 0, Misses: 0
ca-> Hits: 1039, Late: 9, Early: 0, Misses: 0
cb-> Hits: 28, Late: 0, Early: 0, Misses: 0
cc-> Hits: 3, Late: 1, Early: 0, Misses: 0
cd-> Hits: 1567, Late: 0, Early: 0, Misses: 0
ce-> Hits: 0, Late: 2, Early: 0, Misses: 0
cf-> Hits: 1829, Late: 0, Early: 0, Misses: 0
d0-> Hits: 19743, Late: 2804, Early: 0, Misses: 14
d1-> Hits: 546, Late: 2702, Early: 0, Misses: 0
d2-> Hits: 3137, Late: 0, Early: 0, Misses: 0
d3-> Hits: 1622, Late: 29, Early: 0, Misses: 0
d4-> Hits: 3246, Late: 0, Early: 0, Misses: 0
d5-> Hits: 18286, Late: 3786, Early: 0, Misses: 0
d7-> Hits: 118, Late: 0, Early: 0, Misses: 0
d8-> Hits: 8, Late: 0, Early: 0, Misses: 0
da-> Hits: 17887, Late: 23, Early: 0, Misses: 0
dc-> Hits: 211, Late: 0, Early: 0, Misses: 0
dd-> Hits: 3254, Late: 141, Early: 0, Misses: 96
de-> Hits: 3, Late: 0, Early: 0, Misses: 0
df-> Hits: 80, Late: 0, Early: 0, Misses: 0
e0-> Hits: 19443, Late: 619, Early: 0, Misses: 1
e1-> Hits: 57, Late: 3, Early: 0, Misses: 1
e2-> Hits: 7005, Late: 67, Early: 0, Misses: 0
e4-> Hits: 648, Late: 2720, Early: 0, Misses: 0
e5-> Hits: 40632, Late: 292, Early: 0, Misses: 1
e8-> Hits: 371, Late: 2, Early: 0, Misses: 0
e9-> Hits: 4741, Late: 49, Early: 0, Misses: 1
ea-> Hits: 1, Late: 0, Early: 0, Misses: 0
eb-> Hits: 239, Late: 1, Early: 0, Misses: 0
ed-> Hits: 4775, Late: 355, Early: 0, Misses: 1
ee-> Hits: 2, Late: 0, Early: 0, Misses: 0
f0-> Hits: 2805, Late: 425, Early: 0, Misses: 0
f1-> Hits: 0, Late: 3, Early: 0, Misses: 0
f2-> Hits: 0, Late: 2, Early: 0, Misses: 0
f3-> Hits: 116, Late: 0, Early: 0, Misses: 0
f4-> Hits: 13867, Late: 2312, Early: 0, Misses: 0
f5-> Hits: 3282, Late: 1, Early: 0, Misses: 44
f6-> Hits: 82042, Late: 0, Early: 0, Misses: 0
f7-> Hits: 522, Late: 0, Early: 0, Misses: 0
f8-> Hits: 2939, Late: 288, Early: 0, Misses: 0
fa-> Hits: 116, Late: 0, Early: 0, Misses: 0
fb-> Hits: 104552, Late: 1106, Early: 0, Misses: 0
fc-> Hits: 60, Late: 0, Early: 0, Misses: 0
fd-> Hits: 120, Late: 1, Early: 0, Misses: 22
100-> Hits: 79654, Late: 7, Early: 0, Misses: 0
101-> Hits: 3189, Late: 0, Early: 0, Misses: 0
102-> Hits: 544, Late: 2716, Early: 0, Misses: 0
103-> Hits: 3787, Late: 0, Early: 0, Misses: 0
104-> Hits: 2, Late: 0, Early: 0, Misses: 0
105-> Hits: 171, Late: 18, Early: 0, Misses: 40
107-> Hits: 550, Late: 0, Early: 0, Misses: 0
108-> Hits: 9, Late: 0, Early: 0, Misses: 0
109-> Hits: 6, Late: 0, Early: 0, Misses: 0
10a-> Hits: 1620, Late: 0, Early: 0, Misses: 0
10b-> Hits: 181, Late: 0, Early: 0, Misses: 116
10c-> Hits: 8886, Late: 62, Early: 0, Misses: 59
10d-> Hits: 512, Late: 0, Early: 0, Misses: 0
10e-> Hits: 64585, Late: 1, Early: 0, Misses: 0
10f-> Hits: 4136, Late: 147, Early: 0, Misses: 1
110-> Hits: 1489, Late: 5, Early: 0, Misses: 0
112-> Hits: 2, Late: 8, Early: 0, Misses: 0
113-> Hits: 108000, Late: 1144, Early: 0, Misses: 0
114-> Hits: 98, Late: 0, Early: 0, Misses: 18
115-> Hits: 140, Late: 0, Early: 0, Misses: 0
116-> Hits: 1560, Late: 0, Early: 0, Misses: 0
117-> Hits: 4068, Late: 99, Early: 0, Misses: 0
118-> Hits: 13532, Late: 1, Early: 0, Misses: 0
11a-> Hits: 1, Late: 0, Early: 0, Misses: 0
11b-> Hits: 3182, Late: 0, Early: 0, Misses: 0
11c-> Hits: 105, Late: 0, Early: 0, Misses: 11
11d-> Hits: 116, Late: 0, Early: 0, Misses: 0
11e-> Hits: 71202, Late: 0, Early: 0, Misses: 0
11f-> Hits: 11, Late: 2, Early: 0, Misses: 0
120-> Hits: 64, Late: 1, Early: 0, Misses: 0
121-> Hits: 1, Late: 0, Early: 0, Misses: 0
122-> Hits: 5486, Late: 0, Early: 0, Misses: 0
123-> Hits: 879, Late: 0, Early: 0, Misses: 0
125-> Hits: 52, Late: 0, Early: 0, Misses: 0
126-> Hits: 104316, Late: 26, Early: 0, Misses: 0
127-> Hits: 12, Late: 0, Early: 0, Misses: 0
128-> Hits: 4746, Late: 0, Early: 0, Misses: 0
129-> Hits: 1577, Late: 2, Early: 0, Misses: 0
12a-> Hits: 1, Late: 0, Early: 0, Misses: 0
12b-> Hits: 118, Late: 0, Early: 0, Misses: 0
12c-> Hits: 3248, Late: 0, Early: 0, Misses: 1
12d-> Hits: 50, Late: 0, Early: 0, Misses: 3
12e-> Hits: 118, Late: 0, Early: 0, Misses: 0
12f-> Hits: 113886, Late: 0, Early: 0, Misses: 0
130-> Hits: 3631, Late: 0, Early: 0, Misses: 0
132-> Hits: 10, Late: 0, Early: 0, Misses: 0
133-> Hits: 179, Late: 0, Early: 0, Misses: 0
134-> Hits: 116, Late: 1, Early: 0, Misses: 0
135-> Hits: 8, Late: 0, Early: 0, Misses: 0
136-> Hits: 1, Late: 0, Early: 0, Misses: 0
137-> Hits: 126, Late: 0, Early: 0, Misses: 0
138-> Hits: 209, Late: 0, Early: 0, Misses: 0
139-> Hits: 1, Late: 0, Early: 0, Misses: 1
13a-> Hits: 3132, Late: 0, Early: 0, Misses: 0
13b-> Hits: 120, Late: 0, Early: 0, Misses: 0
13c-> Hits: 116, Late: 0, Early: 0, Misses: 0
13d-> Hits: 7, Late: 0, Early: 0, Misses: 0
13e-> Hits: 1, Late: 1, Early: 0, Misses: 0
13f-> Hits: 1, Late: 0, Early: 0, Misses: 0
140-> Hits: 5604, Late: 437, Early: 0, Misses: 1
141-> Hits: 2, Late: 0, Early: 0, Misses: 0
142-> Hits: 17, Late: 0, Early: 0, Misses: 0
143-> Hits: 1914, Late: 1, Early: 0, Misses: 0
144-> Hits: 5, Late: 1, Early: 0, Misses: 0
145-> Hits: 1742, Late: 0, Early: 0, Misses: 0
146-> Hits: 1672, Late: 0, Early: 0, Misses: 0
147-> Hits: 1563, Late: 0, Early: 0, Misses: 0
148-> Hits: 0, Late: 2, Early: 0, Misses: 0
149-> Hits: 3183, Late: 1, Early: 0, Misses: 2
14b-> Hits: 1481, Late: 124, Early: 0, Misses: 0
14c-> Hits: 3177, Late: 0, Early: 0, Misses: 0
14d-> Hits: 277, Late: 0, Early: 0, Misses: 118
14e-> Hits: 1931, Late: 0, Early: 0, Misses: 0
14f-> Hits: 2436, Late: 0, Early: 0, Misses: 0
150-> Hits: 79053, Late: 2, Early: 0, Misses: 0
151-> Hits: 99, Late: 0, Early: 0, Misses: 0
152-> Hits: 1555, Late: 0, Early: 0, Misses: 0
153-> Hits: 1393, Late: 54, Early: 0, Misses: 116
154-> Hits: 95, Late: 0, Early: 0, Misses: 0
155-> Hits: 9, Late: 0, Early: 0, Misses: 118
156-> Hits: 1, Late: 0, Early: 0, Misses: 0
157-> Hits: 84, Late: 0, Early: 0, Misses: 0
158-> Hits: 1597, Late: 0, Early: 0, Misses: 0
159-> Hits: 8, Late: 0, Early: 0, Misses: 0
15b-> Hits: 120, Late: 0, Early: 0, Misses: 0
15c-> Hits: 1596, Late: 0, Early: 0, Misses: 0
15d-> Hits: 5, Late: 0, Early: 0, Misses: 0
15e-> Hits: 113, Late: 0, Early: 0, Misses: 0
15f-> Hits: 0, Late: 3, Early: 0, Misses: 0
160-> Hits: 16397, Late: 1609, Early: 0, Misses: 0
161-> Hits: 1573, Late: 1, Early: 0, Misses: 0
164-> Hits: 5720, Late: 1014, Early: 0, Misses: 0
165-> Hits: 93, Late: 0, Early: 0, Misses: 23
166-> Hits: 3, Late: 0, Early: 0, Misses: 0
167-> Hits: 1594, Late: 1, Early: 0, Misses: 4
168-> Hits: 38, Late: 0, Early: 0, Misses: 0
169-> Hits: 129837, Late: 1658, Early: 0, Misses: 0
16a-> Hits: 7, Late: 0, Early: 0, Misses: 0
16b-> Hits: 818, Late: 0, Early: 0, Misses: 0
16c-> Hits: 2913, Late: 0, Early: 0, Misses: 0
16d-> Hits: 5702, Late: 835, Early: 0, Misses: 0
16e-> Hits: 1590, Late: 0, Early: 0, Misses: 0
170-> Hits: 192141, Late: 19, Early: 0, Misses: 1054
171-> Hits: 85, Late: 0, Early: 0, Misses: 0
172-> Hits: 3134, Late: 0, Early: 0, Misses: 0
173-> Hits: 1508, Late: 0, Early: 0, Misses: 0
174-> Hits: 4181, Late: 0, Early: 0, Misses: 4
175-> Hits: 189684, Late: 2362, Early: 0, Misses: 1
178-> Hits: 1, Late: 0, Early: 0, Misses: 0
179-> Hits: 1, Late: 1, Early: 0, Misses: 1
17a-> Hits: 192093, Late: 751, Early: 0, Misses: 94
17b-> Hits: 1, Late: 0, Early: 0, Misses: 0
17c-> Hits: 3209, Late: 0, Early: 0, Misses: 0
17d-> Hits: 1582, Late: 103, Early: 0, Misses: 0
17e-> Hits: 3, Late: 1, Early: 0, Misses: 0
180-> Hits: 6, Late: 3, Early: 0, Misses: 0
181-> Hits: 2, Late: 0, Early: 0, Misses: 0
182-> Hits: 0, Late: 2, Early: 0, Misses: 0
184-> Hits: 162716, Late: 2017, Early: 0, Misses: 20
185-> Hits: 74, Late: 1, Early: 0, Misses: 0
186-> Hits: 61, Late: 0, Early: 0, Misses: 0
18a-> Hits: 1611, Late: 2, Early: 0, Misses: 54
18c-> Hits: 1, Late: 0, Early: 0, Misses: 0
18d-> Hits: 4, Late: 0, Early: 0, Misses: 0
18e-> Hits: 1, Late: 0, Early: 0, Misses: 1
18f-> Hits: 1, Late: 0, Early: 0, Misses: 0
190-> Hits: 48248, Late: 321, Early: 0, Misses: 913
191-> Hits: 2, Late: 0, Early: 0, Misses: 0
192-> Hits: 1676, Late: 2, Early: 0, Misses: 0
193-> Hits: 2903, Late: 0, Early: 0, Misses: 0
195-> Hits: 47416, Late: 0, Early: 0, Misses: 86
196-> Hits: 60, Late: 1, Early: 0, Misses: 0
197-> Hits: 4, Late: 0, Early: 0, Misses: 0
198-> Hits: 3, Late: 2, Early: 0, Misses: 0
199-> Hits: 48029, Late: 0, Early: 0, Misses: 72
19a-> Hits: 1, Late: 0, Early: 0, Misses: 0
19d-> Hits: 1677, Late: 0, Early: 0, Misses: 0
19f-> Hits: 4622, Late: 0, Early: 0, Misses: 0
1a0-> Hits: 2, Late: 5, Early: 0, Misses: 0
1a1-> Hits: 24, Late: 0, Early: 0, Misses: 0
1a2-> Hits: 1, Late: 0, Early: 0, Misses: 0
1a3-> Hits: 1, Late: 0, Early: 0, Misses: 0
1a4-> Hits: 47649, Late: 1183, Early: 0, Misses: 32
1a5-> Hits: 3468, Late: 0, Early: 0, Misses: 0
1a6-> Hits: 58, Late: 0, Early: 0, Misses: 58
1a8-> Hits: 1, Late: 0, Early: 0, Misses: 0
1a9-> Hits: 46760, Late: 601, Early: 0, Misses: 518
1aa-> Hits: 1, Late: 0, Early: 0, Misses: 0
1ab-> Hits: 128, Late: 0, Early: 0, Misses: 0
1ac-> Hits: 52, Late: 0, Early: 0, Misses: 74
1ad-> Hits: 1594, Late: 0, Early: 0, Misses: 0
1af-> Hits: 1, Late: 0, Early: 0, Misses: 0
1b0-> Hits: 60, Late: 1, Early: 0, Misses: 0
1b1-> Hits: 3191, Late: 0, Early: 0, Misses: 0
1b3-> Hits: 47543, Late: 139, Early: 0, Misses: 36
1b4-> Hits: 1, Late: 0, Early: 0, Misses: 0
1b5-> Hits: 61, Late: 1, Early: 0, Misses: 55
1b7-> Hits: 48150, Late: 0, Early: 0, Misses: 0
1b9-> Hits: 1, Late: 0, Early: 0, Misses: 0
1bb-> Hits: 1540, Late: 1, Early: 0, Misses: 20
1bc-> Hits: 1592, Late: 1, Early: 0, Misses: 0
1bd-> Hits: 3299, Late: 0, Early: 0, Misses: 0
1be-> Hits: 2, Late: 0, Early: 0, Misses: 0
1bf-> Hits: 3, Late: 0, Early: 0, Misses: 0
1c0-> Hits: 5, Late: 0, Early: 0, Misses: 0
1c1-> Hits: 50972, Late: 305, Early: 0, Misses: 267
1c2-> Hits: 310, Late: 0, Early: 0, Misses: 0
1c3-> Hits: 9, Late: 0, Early: 0, Misses: 0
1c4-> Hits: 125, Late: 0, Early: 0, Misses: 4
1c5-> Hits: 86, Late: 0, Early: 0, Misses: 0
1c6-> Hits: 47939, Late: 252, Early: 0, Misses: 13
1c7-> Hits: 15, Late: 0, Early: 0, Misses: 0
1c8-> Hits: 2, Late: 2, Early: 0, Misses: 1
1c9-> Hits: 20, Late: 0, Early: 0, Misses: 0
1ca-> Hits: 3328, Late: 0, Early: 0, Misses: 0
1cb-> Hits: 118, Late: 1, Early: 0, Misses: 0
1cc-> Hits: 116, Late: 0, Early: 0, Misses: 0
1cd-> Hits: 124, Late: 0, Early: 0, Misses: 0
1ce-> Hits: 18, Late: 0, Early: 0, Misses: 0
1cf-> Hits: 1, Late: 0, Early: 0, Misses: 0
1d0-> Hits: 18179, Late: 1118, Early: 0, Misses: 1
1d1-> Hits: 109, Late: 0, Early: 0, Misses: 8
1d2-> Hits: 0, Late: 0, Early: 0, Misses: 1
1d3-> Hits: 62, Late: 0, Early: 0, Misses: 0
1d4-> Hits: 4, Late: 0, Early: 0, Misses: 0
1d5-> Hits: 4895, Late: 0, Early: 0, Misses: 0
1d6-> Hits: 1, Late: 0, Early: 0, Misses: 0
1d7-> Hits: 1, Late: 0, Early: 0, Misses: 0
1d8-> Hits: 12179, Late: 591, Early: 0, Misses: 0
1d9-> Hits: 1574, Late: 0, Early: 0, Misses: 19
1da-> Hits: 114, Late: 0, Early: 0, Misses: 2
1db-> Hits: 1560, Late: 0, Early: 0, Misses: 0
1dc-> Hits: 3, Late: 0, Early: 0, Misses: 0
1dd-> Hits: 14, Late: 0, Early: 0, Misses: 0
1de-> Hits: 3076, Late: 0, Early: 0, Misses: 57
1df-> Hits: 1594, Late: 0, Early: 0, Misses: 1
1e0-> Hits: 584, Late: 787, Early: 0, Misses: 0
1e1-> Hits: 1, Late: 1, Early: 0, Misses: 0
1e2-> Hits: 4, Late: 0, Early: 0, Misses: 0
1e3-> Hits: 113, Late: 0, Early: 0, Misses: 0
1e5-> Hits: 1649, Late: 36, Early: 0, Misses: 79
1e6-> Hits: 1, Late: 0, Early: 0, Misses: 0
1e9-> Hits: 2, Late: 1, Early: 0, Misses: 0
1ea-> Hits: 3, Late: 0, Early: 0, Misses: 0
1ec-> Hits: 1533, Late: 0, Early: 0, Misses: 1
1ed-> Hits: 1, Late: 0, Early: 0, Misses: 0
1ee-> Hits: 1081, Late: 261, Early: 0, Misses: 0
1ef-> Hits: 226, Late: 1, Early: 0, Misses: 0
1f0-> Hits: 3299, Late: 2, Early: 0, Misses: 0
1f2-> Hits: 3186, Late: 0, Early: 0, Misses: 0
1f4-> Hits: 65, Late: 0, Early: 0, Misses: 2
1f5-> Hits: 10, Late: 0, Early: 0, Misses: 0
1f6-> Hits: 1563, Late: 0, Early: 0, Misses: 0
1f8-> Hits: 66, Late: 3, Early: 0, Misses: 1
1f9-> Hits: 13, Late: 1, Early: 0, Misses: 0
1fa-> Hits: 3058, Late: 0, Early: 0, Misses: 0
1fb-> Hits: 3, Late: 1, Early: 0, Misses: 4
1fc-> Hits: 2528, Late: 0, Early: 0, Misses: 0
1fd-> Hits: 13, Late: 35, Early: 0, Misses: 81
1fe-> Hits: 2, Late: 0, Early: 0, Misses: 0
1ff-> Hits: 1, Late: 0, Early: 0, Misses: 0
200-> Hits: 198897, Late: 6, Early: 0, Misses: 0
201-> Hits: 11, Late: 3, Early: 0, Misses: 0
202-> Hits: 3189, Late: 0, Early: 0, Misses: 0
203-> Hits: 2, Late: 1, Early: 0, Misses: 0
204-> Hits: 157726, Late: 15484, Early: 0, Misses: 0
205-> Hits: 118, Late: 0, Early: 0, Misses: 0
206-> Hits: 3, Late: 0, Early: 0, Misses: 0
207-> Hits: 3, Late: 0, Early: 0, Misses: 0
208-> Hits: 181499, Late: 0, Early: 0, Misses: 0
209-> Hits: 13, Late: 0, Early: 0, Misses: 2
20a-> Hits: 6, Late: 0, Early: 0, Misses: 0
20b-> Hits: 131, Late: 0, Early: 0, Misses: 0
20c-> Hits: 1392, Late: 0, Early: 0, Misses: 0
20d-> Hits: 11, Late: 1, Early: 0, Misses: 7
20e-> Hits: 1410, Late: 0, Early: 0, Misses: 0
20f-> Hits: 3085, Late: 0, Early: 0, Misses: 57
210-> Hits: 2, Late: 0, Early: 0, Misses: 0
211-> Hits: 2, Late: 0, Early: 0, Misses: 0
212-> Hits: 1, Late: 0, Early: 0, Misses: 0
213-> Hits: 3, Late: 0, Early: 0, Misses: 0
214-> Hits: 1595, Late: 0, Early: 0, Misses: 0
215-> Hits: 96, Late: 0, Early: 0, Misses: 0
216-> Hits: 161, Late: 0, Early: 0, Misses: 0
217-> Hits: 303, Late: 2, Early: 0, Misses: 0
218-> Hits: 11, Late: 0, Early: 0, Misses: 0
21a-> Hits: 116, Late: 0, Early: 0, Misses: 0
21b-> Hits: 130, Late: 0, Early: 0, Misses: 1
21c-> Hits: 1719, Late: 0, Early: 0, Misses: 0
21e-> Hits: 1560, Late: 0, Early: 0, Misses: 0
21f-> Hits: 254, Late: 0, Early: 0, Misses: 0
220-> Hits: 76, Late: 1, Early: 0, Misses: 0
221-> Hits: 1, Late: 0, Early: 0, Misses: 0
222-> Hits: 11, Late: 3, Early: 0, Misses: 0
223-> Hits: 1686, Late: 5, Early: 0, Misses: 1
224-> Hits: 858, Late: 0, Early: 0, Misses: 0
227-> Hits: 2577, Late: 0, Early: 0, Misses: 0
228-> Hits: 158, Late: 3, Early: 0, Misses: 0
229-> Hits: 62, Late: 0, Early: 0, Misses: 0
22a-> Hits: 10, Late: 0, Early: 0, Misses: 0
22b-> Hits: 1555, Late: 0, Early: 0, Misses: 7
22c-> Hits: 486, Late: 0, Early: 0, Misses: 0
22d-> Hits: 1, Late: 0, Early: 0, Misses: 0
22f-> Hits: 2725, Late: 0, Early: 0, Misses: 0
230-> Hits: 457, Late: 6, Early: 0, Misses: 2
232-> Hits: 22, Late: 0, Early: 0, Misses: 0
234-> Hits: 1536, Late: 0, Early: 0, Misses: 0
235-> Hits: 57, Late: 0, Early: 0, Misses: 0
237-> Hits: 134, Late: 0, Early: 0, Misses: 0
238-> Hits: 85, Late: 0, Early: 0, Misses: 0
239-> Hits: 43, Late: 0, Early: 0, Misses: 0
23a-> Hits: 152, Late: 0, Early: 0, Misses: 0
23b-> Hits: 116, Late: 0, Early: 0, Misses: 0
23c-> Hits: 1582, Late: 0, Early: 0, Misses: 0
23e-> Hits: 2715, Late: 0, Early: 0, Misses: 0
23f-> Hits: 449, Late: 4, Early: 0, Misses: 0
240-> Hits: 120, Late: 0, Early: 0, Misses: 0
241-> Hits: 106, Late: 0, Early: 0, Misses: 76
242-> Hits: 60, Late: 1, Early: 0, Misses: 0
243-> Hits: 3302, Late: 0, Early: 0, Misses: 0
244-> Hits: 3, Late: 0, Early: 0, Misses: 0
245-> Hits: 303, Late: 29, Early: 0, Misses: 0
247-> Hits: 3, Late: 0, Early: 0, Misses: 1
248-> Hits: 1, Late: 0, Early: 0, Misses: 0
249-> Hits: 19, Late: 2, Early: 0, Misses: 99
24a-> Hits: 2, Late: 1, Early: 0, Misses: 0
24b-> Hits: 2, Late: 0, Early: 0, Misses: 0
24c-> Hits: 1619, Late: 0, Early: 0, Misses: 0
24d-> Hits: 112, Late: 0, Early: 0, Misses: 0
24f-> Hits: 304, Late: 0, Early: 0, Misses: 0
250-> Hits: 88002, Late: 362, Early: 0, Misses: 0
251-> Hits: 39, Late: 2, Early: 0, Misses: 0
252-> Hits: 61, Late: 2, Early: 0, Misses: 0
253-> Hits: 1570, Late: 0, Early: 0, Misses: 0
255-> Hits: 80337, Late: 0, Early: 0, Misses: 0
256-> Hits: 8, Late: 0, Early: 0, Misses: 0
257-> Hits: 497, Late: 1, Early: 0, Misses: 0
258-> Hits: 5, Late: 0, Early: 0, Misses: 0
259-> Hits: 61, Late: 0, Early: 0, Misses: 0
25a-> Hits: 1, Late: 1, Early: 0, Misses: 0
25b-> Hits: 14, Late: 45, Early: 0, Misses: 0
25c-> Hits: 118, Late: 0, Early: 0, Misses: 0
25e-> Hits: 15, Late: 1, Early: 0, Misses: 0
25f-> Hits: 142406, Late: 409, Early: 0, Misses: 246
260-> Hits: 308, Late: 3, Early: 0, Misses: 1
261-> Hits: 13, Late: 0, Early: 0, Misses: 0
262-> Hits: 1006, Late: 0, Early: 0, Misses: 0
263-> Hits: 54722, Late: 0, Early: 0, Misses: 0
264-> Hits: 184, Late: 47, Early: 0, Misses: 0
265-> Hits: 191, Late: 0, Early: 0, Misses: 0
266-> Hits: 13, Late: 3, Early: 0, Misses: 114
267-> Hits: 6, Late: 2, Early: 0, Misses: 0
268-> Hits: 2, Late: 0, Early: 0, Misses: 0
269-> Hits: 71, Late: 2, Early: 0, Misses: 0
26a-> Hits: 267, Late: 120, Early: 0, Misses: 0
26b-> Hits: 2, Late: 0, Early: 0, Misses: 0
26c-> Hits: 1632, Late: 0, Early: 0, Misses: 0
26d-> Hits: 85386, Late: 157, Early: 0, Misses: 0
26e-> Hits: 3187, Late: 0, Early: 0, Misses: 0
26f-> Hits: 0, Late: 2, Early: 0, Misses: 114
270-> Hits: 2, Late: 2, Early: 0, Misses: 0
271-> Hits: 53448, Late: 154, Early: 0, Misses: 0
272-> Hits: 273, Late: 47, Early: 0, Misses: 0
273-> Hits: 1355, Late: 1, Early: 0, Misses: 0
274-> Hits: 22, Late: 1, Early: 0, Misses: 0
275-> Hits: 2, Late: 0, Early: 0, Misses: 0
277-> Hits: 4, Late: 0, Early: 0, Misses: 1
278-> Hits: 569, Late: 3, Early: 0, Misses: 0
27a-> Hits: 2339, Late: 2, Early: 0, Misses: 0
27b-> Hits: 1345, Late: 1, Early: 0, Misses: 0
27c-> Hits: 6, Late: 0, Early: 0, Misses: 0
27d-> Hits: 3, Late: 1, Early: 0, Misses: 0
27e-> Hits: 3, Late: 0, Early: 0, Misses: 0
27f-> Hits: 1, Late: 0, Early: 0, Misses: 0
280-> Hits: 339, Late: 3, Early: 0, Misses: 0
281-> Hits: 1, Late: 0, Early: 0, Misses: 0
282-> Hits: 3, Late: 0, Early: 0, Misses: 0
284-> Hits: 25, Late: 0, Early: 0, Misses: 0
285-> Hits: 235, Late: 0, Early: 0, Misses: 0
286-> Hits: 51615, Late: 495, Early: 0, Misses: 0
287-> Hits: 9, Late: 0, Early: 0, Misses: 1
288-> Hits: 5, Late: 2, Early: 0, Misses: 0
289-> Hits: 116, Late: 0, Early: 0, Misses: 0
28a-> Hits: 2, Late: 2, Early: 0, Misses: 0
28b-> Hits: 84480, Late: 93, Early: 0, Misses: 0
28c-> Hits: 2, Late: 1, Early: 0, Misses: 0
28d-> Hits: 1, Late: 0, Early: 0, Misses: 0
28e-> Hits: 1, Late: 1, Early: 0, Misses: 0
290-> Hits: 38771, Late: 5813, Early: 0, Misses: 3
291-> Hits: 77136, Late: 0, Early: 0, Misses: 0
292-> Hits: 2433, Late: 0, Early: 0, Misses: 0
293-> Hits: 1099, Late: 564, Early: 0, Misses: 52
294-> Hits: 36184, Late: 6227, Early: 0, Misses: 0
295-> Hits: 60, Late: 0, Early: 0, Misses: 0
296-> Hits: 11, Late: 0, Early: 0, Misses: 0
297-> Hits: 0, Late: 0, Early: 0, Misses: 1
298-> Hits: 9, Late: 1, Early: 0, Misses: 0
29a-> Hits: 8, Late: 0, Early: 0, Misses: 0
29b-> Hits: 117, Late: 0, Early: 0, Misses: 0
29c-> Hits: 1, Late: 0, Early: 0, Misses: 0
29d-> Hits: 1060, Late: 642, Early: 0, Misses: 2
29e-> Hits: 3484, Late: 27, Early: 0, Misses: 0
29f-> Hits: 37714, Late: 5652, Early: 0, Misses: 0
2a0-> Hits: 2, Late: 0, Early: 0, Misses: 1
2a1-> Hits: 3, Late: 0, Early: 0, Misses: 1
2a2-> Hits: 117, Late: 0, Early: 0, Misses: 0
2a3-> Hits: 35783, Late: 7218, Early: 0, Misses: 0
2a4-> Hits: 340, Late: 0, Early: 0, Misses: 0
2a5-> Hits: 0, Late: 2, Early: 0, Misses: 0
2a7-> Hits: 3186, Late: 0, Early: 0, Misses: 1
2a8-> Hits: 1, Late: 2, Early: 0, Misses: 0
2a9-> Hits: 17945, Late: 5, Early: 0, Misses: 0
2ab-> Hits: 5, Late: 3, Early: 0, Misses: 0
2ac-> Hits: 0, Late: 1, Early: 0, Misses: 0
2ad-> Hits: 1, Late: 0, Early: 0, Misses: 0
2af-> Hits: 36012, Late: 6500, Early: 0, Misses: 0
2b0-> Hits: 46, Late: 1, Early: 0, Misses: 0
2b1-> Hits: 4, Late: 0, Early: 0, Misses: 0
2b2-> Hits: 1, Late: 0, Early: 0, Misses: 0
2b3-> Hits: 104, Late: 0, Early: 0, Misses: 0
2b4-> Hits: 2, Late: 0, Early: 0, Misses: 0
2b5-> Hits: 33594, Late: 7454, Early: 0, Misses: 0
2b6-> Hits: 1, Late: 0, Early: 0, Misses: 0
2b7-> Hits: 117, Late: 1, Early: 0, Misses: 0
2b8-> Hits: 7, Late: 0, Early: 0, Misses: 1
2b9-> Hits: 4, Late: 0, Early: 0, Misses: 0
2ba-> Hits: 3, Late: 0, Early: 0, Misses: 0
2bb-> Hits: 51974, Late: 579, Early: 0, Misses: 0
2bd-> Hits: 345, Late: 0, Early: 0, Misses: 0
2be-> Hits: 5, Late: 0, Early: 0, Misses: 0
2bf-> Hits: 1, Late: 1, Early: 0, Misses: 0
2c0-> Hits: 4, Late: 5, Early: 0, Misses: 0
2c2-> Hits: 2, Late: 1, Early: 0, Misses: 0
2c5-> Hits: 2, Late: 0, Early: 0, Misses: 0
2c6-> Hits: 2, Late: 0, Early: 0, Misses: 0
2c7-> Hits: 1561, Late: 0, Early: 0, Misses: 1
2c9-> Hits: 2, Late: 2, Early: 0, Misses: 0
2ca-> Hits: 18153, Late: 67, Early: 0, Misses: 0
2cb-> Hits: 116, Late: 0, Early: 0, Misses: 0
2cd-> Hits: 118, Late: 0, Early: 0, Misses: 0
2ce-> Hits: 2, Late: 0, Early: 0, Misses: 0
2d0-> Hits: 5, Late: 0, Early: 0, Misses: 0
2d4-> Hits: 1, Late: 0, Early: 0, Misses: 0
2d5-> Hits: 149, Late: 0, Early: 0, Misses: 0
2d6-> Hits: 47195, Late: 868, Early: 0, Misses: 0
2d7-> Hits: 2375, Late: 0, Early: 0, Misses: 0
2d8-> Hits: 340, Late: 2, Early: 0, Misses: 0
2d9-> Hits: 5, Late: 0, Early: 0, Misses: 0
2da-> Hits: 166, Late: 0, Early: 0, Misses: 0
2db-> Hits: 15600, Late: 111, Early: 0, Misses: 0
2df-> Hits: 3004, Late: 0, Early: 0, Misses: 0
2e0-> Hits: 3, Late: 2, Early: 0, Misses: 0
2e1-> Hits: 52, Late: 9, Early: 0, Misses: 1
2e2-> Hits: 119, Late: 2, Early: 0, Misses: 0
2e3-> Hits: 50108, Late: 922, Early: 0, Misses: 0
2e6-> Hits: 60, Late: 0, Early: 0, Misses: 0
2e7-> Hits: 14076, Late: 114, Early: 0, Misses: 0
2e8-> Hits: 322, Late: 4, Early: 0, Misses: 0
2e9-> Hits: 3, Late: 0, Early: 0, Misses: 0
2ea-> Hits: 12, Late: 0, Early: 0, Misses: 0
2ed-> Hits: 2, Late: 0, Early: 0, Misses: 0
2ee-> Hits: 31, Late: 0, Early: 0, Misses: 30
2ef-> Hits: 1, Late: 0, Early: 0, Misses: 0
2f0-> Hits: 8023, Late: 1, Early: 0, Misses: 1
2f1-> Hits: 2, Late: 0, Early: 0, Misses: 0
2f2-> Hits: 2, Late: 0, Early: 0, Misses: 0
2f3-> Hits: 344, Late: 0, Early: 0, Misses: 0
2f4-> Hits: 49308, Late: 1038, Early: 0, Misses: 0
2f5-> Hits: 3240, Late: 0, Early: 0, Misses: 0
2f6-> Hits: 8097, Late: 1, Early: 0, Misses: 1
2f8-> Hits: 25, Late: 1, Early: 0, Misses: 0
2f9-> Hits: 8994, Late: 187, Early: 0, Misses: 0
2fa-> Hits: 179, Late: 0, Early: 0, Misses: 0
2fb-> Hits: 2, Late: 2, Early: 0, Misses: 0
2fd-> Hits: 49, Late: 0, Early: 0, Misses: 0
2fe-> Hits: 10, Late: 0, Early: 0, Misses: 0
2ff-> Hits: 219, Late: 127, Early: 0, Misses: 0
300-> Hits: 1238, Late: 152, Early: 0, Misses: 0
301-> Hits: 57303, Late: 1319, Early: 0, Misses: 0
302-> Hits: 6, Late: 0, Early: 0, Misses: 0
303-> Hits: 119, Late: 2, Early: 0, Misses: 0
304-> Hits: 317, Late: 52, Early: 0, Misses: 0
306-> Hits: 15143, Late: 219, Early: 0, Misses: 58
307-> Hits: 1267, Late: 117, Early: 0, Misses: 0
308-> Hits: 6147, Late: 0, Early: 0, Misses: 0
30a-> Hits: 2, Late: 0, Early: 0, Misses: 0
30b-> Hits: 334, Late: 40, Early: 0, Misses: 0
30c-> Hits: 94, Late: 0, Early: 0, Misses: 0
30d-> Hits: 1, Late: 0, Early: 0, Misses: 0
30e-> Hits: 362, Late: 2, Early: 0, Misses: 0
30f-> Hits: 10866, Late: 38, Early: 0, Misses: 8
310-> Hits: 4224, Late: 10, Early: 0, Misses: 0
313-> Hits: 0, Late: 0, Early: 0, Misses: 1
314-> Hits: 7737, Late: 0, Early: 0, Misses: 1
315-> Hits: 189, Late: 36, Early: 0, Misses: 3
316-> Hits: 60, Late: 0, Early: 0, Misses: 0
317-> Hits: 1, Late: 0, Early: 0, Misses: 0
318-> Hits: 2532, Late: 0, Early: 0, Misses: 0
319-> Hits: 1, Late: 0, Early: 0, Misses: 0
31a-> Hits: 1, Late: 0, Early: 0, Misses: 0
31c-> Hits: 19, Late: 0, Early: 0, Misses: 0
31e-> Hits: 199, Late: 12, Early: 0, Misses: 0
31f-> Hits: 7883, Late: 13, Early: 0, Misses: 10
320-> Hits: 4095, Late: 20008, Early: 0, Misses: 1
321-> Hits: 0, Late: 0, Early: 0, Misses: 1
322-> Hits: 298, Late: 0, Early: 0, Misses: 0
323-> Hits: 45, Late: 1, Early: 0, Misses: 1
324-> Hits: 3174, Late: 0, Early: 0, Misses: 0
325-> Hits: 7929, Late: 1, Early: 0, Misses: 0
329-> Hits: 298, Late: 0, Early: 0, Misses: 0
32a-> Hits: 328, Late: 765, Early: 0, Misses: 0
32b-> Hits: 3031, Late: 114, Early: 0, Misses: 0
32c-> Hits: 13, Late: 1, Early: 0, Misses: 0
32e-> Hits: 1, Late: 0, Early: 0, Misses: 0
330-> Hits: 3615, Late: 2, Early: 0, Misses: 0
331-> Hits: 37, Late: 0, Early: 0, Misses: 0
332-> Hits: 118, Late: 0, Early: 0, Misses: 0
333-> Hits: 20296, Late: 0, Early: 0, Misses: 0
334-> Hits: 3460, Late: 7137, Early: 0, Misses: 0
335-> Hits: 30, Late: 3, Early: 0, Misses: 0
336-> Hits: 2, Late: 0, Early: 0, Misses: 0
338-> Hits: 11842, Late: 14, Early: 0, Misses: 358
339-> Hits: 1013, Late: 0, Early: 0, Misses: 0
33a-> Hits: 0, Late: 0, Early: 0, Misses: 1
33b-> Hits: 3132, Late: 0, Early: 0, Misses: 0
33c-> Hits: 3241, Late: 1, Early: 0, Misses: 0
33d-> Hits: 169, Late: 0, Early: 0, Misses: 0
33e-> Hits: 1, Late: 2, Early: 0, Misses: 0
340-> Hits: 27, Late: 0, Early: 0, Misses: 0
341-> Hits: 143, Late: 0, Early: 0, Misses: 0
343-> Hits: 560, Late: 0, Early: 0, Misses: 0
344-> Hits: 83710, Late: 0, Early: 0, Misses: 0
345-> Hits: 3132, Late: 0, Early: 0, Misses: 0
348-> Hits: 9, Late: 1, Early: 0, Misses: 1
349-> Hits: 3073, Late: 0, Early: 0, Misses: 0
34a-> Hits: 1, Late: 0, Early: 0, Misses: 0
34b-> Hits: 646, Late: 0, Early: 0, Misses: 0
34c-> Hits: 1, Late: 0, Early: 0, Misses: 0
34d-> Hits: 833, Late: 0, Early: 0, Misses: 0
34e-> Hits: 1, Late: 0, Early: 0, Misses: 0
34f-> Hits: 6148, Late: 116, Early: 0, Misses: 0
350-> Hits: 6380, Late: 446, Early: 0, Misses: 1
351-> Hits: 1375, Late: 0, Early: 0, Misses: 0
352-> Hits: 2, Late: 0, Early: 0, Misses: 1
353-> Hits: 0, Late: 1, Early: 0, Misses: 0
355-> Hits: 2862, Late: 365, Early: 0, Misses: 0
356-> Hits: 24, Late: 1, Early: 0, Misses: 13
357-> Hits: 3108, Late: 2, Early: 0, Misses: 22
358-> Hits: 1480, Late: 16, Early: 0, Misses: 0
359-> Hits: 2526, Late: 0, Early: 0, Misses: 0
35a-> Hits: 1, Late: 0, Early: 0, Misses: 0
35b-> Hits: 1, Late: 13, Early: 0, Misses: 0
35c-> Hits: 77, Late: 0, Early: 0, Misses: 0
35d-> Hits: 6, Late: 0, Early: 0, Misses: 0
35e-> Hits: 3205, Late: 0, Early: 0, Misses: 0
35f-> Hits: 7, Late: 6, Early: 0, Misses: 0
360-> Hits: 2782, Late: 442, Early: 0, Misses: 0
361-> Hits: 648, Late: 1, Early: 0, Misses: 0
363-> Hits: 38, Late: 0, Early: 0, Misses: 0
364-> Hits: 31, Late: 0, Early: 0, Misses: 0
365-> Hits: 2986, Late: 402, Early: 0, Misses: 0
366-> Hits: 679, Late: 0, Early: 0, Misses: 0
367-> Hits: 0, Late: 1, Early: 0, Misses: 0
368-> Hits: 3159, Late: 15, Early: 0, Misses: 0
369-> Hits: 3214, Late: 13, Early: 0, Misses: 0
36a-> Hits: 0, Late: 1, Early: 0, Misses: 0
36b-> Hits: 0, Late: 2, Early: 0, Misses: 0
36c-> Hits: 54, Late: 0, Early: 0, Misses: 0
36d-> Hits: 122, Late: 0, Early: 0, Misses: 1
36e-> Hits: 2, Late: 0, Early: 0, Misses: 0
370-> Hits: 2685, Late: 566, Early: 0, Misses: 0
371-> Hits: 6070, Late: 4, Early: 0, Misses: 113
372-> Hits: 3845, Late: 0, Early: 0, Misses: 0
373-> Hits: 0, Late: 1, Early: 0, Misses: 0
374-> Hits: 234, Late: 0, Early: 0, Misses: 0
375-> Hits: 2758, Late: 497, Early: 0, Misses: 14
377-> Hits: 3132, Late: 0, Early: 0, Misses: 0
378-> Hits: 242, Late: 0, Early: 0, Misses: 1
37a-> Hits: 2, Late: 0, Early: 0, Misses: 0
37c-> Hits: 117, Late: 0, Early: 0, Misses: 0
37d-> Hits: 2, Late: 13, Early: 0, Misses: 0
37e-> Hits: 3155, Late: 0, Early: 0, Misses: 0
37f-> Hits: 118, Late: 0, Early: 0, Misses: 0
380-> Hits: 14100, Late: 471, Early: 0, Misses: 4
381-> Hits: 0, Late: 1, Early: 0, Misses: 0
382-> Hits: 546, Late: 0, Early: 0, Misses: 58
383-> Hits: 2, Late: 0, Early: 0, Misses: 0
384-> Hits: 5, Late: 0, Early: 0, Misses: 13
385-> Hits: 3195, Late: 399, Early: 0, Misses: 0
387-> Hits: 3257, Late: 0, Early: 0, Misses: 0
388-> Hits: 156, Late: 2, Early: 0, Misses: 0
38a-> Hits: 3138, Late: 0, Early: 0, Misses: 0
38b-> Hits: 14378, Late: 225, Early: 0, Misses: 0
38c-> Hits: 37, Late: 16, Early: 0, Misses: 0
38d-> Hits: 78, Late: 0, Early: 0, Misses: 0
38e-> Hits: 93, Late: 0, Early: 0, Misses: 60
38f-> Hits: 13, Late: 0, Early: 0, Misses: 0
390-> Hits: 3314, Late: 1308, Early: 0, Misses: 0
391-> Hits: 3365, Late: 212, Early: 0, Misses: 1
392-> Hits: 1, Late: 0, Early: 0, Misses: 0
393-> Hits: 60, Late: 0, Early: 0, Misses: 59
394-> Hits: 55, Late: 13, Early: 0, Misses: 0
395-> Hits: 6337, Late: 0, Early: 0, Misses: 0
396-> Hits: 9, Late: 0, Early: 0, Misses: 0
397-> Hits: 19, Late: 0, Early: 0, Misses: 4
399-> Hits: 4240, Late: 75, Early: 0, Misses: 0
39a-> Hits: 27, Late: 0, Early: 0, Misses: 0
39b-> Hits: 126, Late: 1, Early: 0, Misses: 2
39c-> Hits: 6, Late: 1, Early: 0, Misses: 0
39d-> Hits: 10, Late: 0, Early: 0, Misses: 0
39e-> Hits: 167, Late: 1460, Early: 0, Misses: 0
39f-> Hits: 9, Late: 13, Early: 0, Misses: 0
3a0-> Hits: 3158, Late: 0, Early: 0, Misses: 0
3a1-> Hits: 1, Late: 1, Early: 0, Misses: 0
3a2-> Hits: 13, Late: 0, Early: 0, Misses: 0
3a3-> Hits: 15261, Late: 573, Early: 0, Misses: 0
3a4-> Hits: 42, Late: 0, Early: 0, Misses: 0
3a5-> Hits: 0, Late: 1, Early: 0, Misses: 0
3a6-> Hits: 155, Late: 0, Early: 0, Misses: 6
3a7-> Hits: 1, Late: 0, Early: 0, Misses: 0
3a8-> Hits: 3176, Late: 403, Early: 0, Misses: 0
3a9-> Hits: 3466, Late: 7, Early: 0, Misses: 24
3aa-> Hits: 1, Late: 0, Early: 0, Misses: 0
3ab-> Hits: 10, Late: 0, Early: 0, Misses: 118
3ac-> Hits: 3140, Late: 0, Early: 0, Misses: 0
3ae-> Hits: 15, Late: 0, Early: 0, Misses: 45
3af-> Hits: 9, Late: 0, Early: 0, Misses: 0
3b0-> Hits: 55, Late: 4, Early: 0, Misses: 0
3b1-> Hits: 355, Late: 13, Early: 0, Misses: 1
3b2-> Hits: 2, Late: 0, Early: 0, Misses: 0
3b3-> Hits: 66, Late: 0, Early: 0, Misses: 59
3b4-> Hits: 3260, Late: 73, Early: 0, Misses: 34
3b5-> Hits: 0, Late: 1, Early: 0, Misses: 0
3b6-> Hits: 2864, Late: 0, Early: 0, Misses: 0
3b7-> Hits: 3077, Late: 0, Early: 0, Misses: 57
3b8-> Hits: 63, Late: 0, Early: 0, Misses: 0
3b9-> Hits: 89, Late: 0, Early: 0, Misses: 37
3ba-> Hits: 1, Late: 0, Early: 0, Misses: 0
3bc-> Hits: 81, Late: 0, Early: 0, Misses: 36
3bd-> Hits: 1, Late: 0, Early: 0, Misses: 0
3be-> Hits: 3863, Late: 74, Early: 0, Misses: 0
3bf-> Hits: 0, Late: 14, Early: 0, Misses: 0
3c0-> Hits: 256, Late: 0, Early: 0, Misses: 0
3c1-> Hits: 147, Late: 0, Early: 0, Misses: 0
3c2-> Hits: 0, Late: 0, Early: 0, Misses: 1
3c3-> Hits: 18, Late: 0, Early: 0, Misses: 0
3c5-> Hits: 216, Late: 0, Early: 0, Misses: 58
3c6-> Hits: 36, Late: 37, Early: 0, Misses: 0
3c7-> Hits: 605, Late: 0, Early: 0, Misses: 0
3c8-> Hits: 3053, Late: 0, Early: 0, Misses: 0
3c9-> Hits: 84, Late: 0, Early: 0, Misses: 0
3ca-> Hits: 95, Late: 1, Early: 0, Misses: 22
3cc-> Hits: 446, Late: 0, Early: 0, Misses: 0
3cd-> Hits: 554, Late: 1, Early: 0, Misses: 58
3ce-> Hits: 62, Late: 0, Early: 0, Misses: 0
3cf-> Hits: 1634, Late: 58, Early: 0, Misses: 0
3d0-> Hits: 7, Late: 1, Early: 0, Misses: 0
3d1-> Hits: 12, Late: 0, Early: 0, Misses: 0
3d2-> Hits: 58, Late: 1, Early: 0, Misses: 57
3d3-> Hits: 591, Late: 2657, Early: 0, Misses: 0
3d4-> Hits: 472, Late: 0, Early: 0, Misses: 0
3d5-> Hits: 187, Late: 0, Early: 0, Misses: 1
3d6-> Hits: 310, Late: 0, Early: 0, Misses: 0
3d7-> Hits: 530, Late: 1, Early: 0, Misses: 58
3d8-> Hits: 78, Late: 1, Early: 0, Misses: 1
3d9-> Hits: 14, Late: 0, Early: 0, Misses: 0
3da-> Hits: 14, Late: 0, Early: 0, Misses: 2
3dc-> Hits: 534, Late: 0, Early: 0, Misses: 0
3dd-> Hits: 148, Late: 0, Early: 0, Misses: 0
3de-> Hits: 178, Late: 0, Early: 0, Misses: 0
3e0-> Hits: 0, Late: 3, Early: 0, Misses: 1
3e1-> Hits: 807, Late: 0, Early: 0, Misses: 0
3e2-> Hits: 43, Late: 0, Early: 0, Misses: 0
3e3-> Hits: 1, Late: 0, Early: 0, Misses: 0
3e4-> Hits: 601, Late: 2712, Early: 0, Misses: 0
3e5-> Hits: 283, Late: 0, Early: 0, Misses: 0
3e6-> Hits: 1857, Late: 1, Early: 0, Misses: 0
3e9-> Hits: 2, Late: 0, Early: 0, Misses: 0
3eb-> Hits: 10, Late: 0, Early: 0, Misses: 0
3ec-> Hits: 6061, Late: 0, Early: 0, Misses: 0
3ed-> Hits: 85, Late: 0, Early: 0, Misses: 0
3ee-> Hits: 129, Late: 1, Early: 0, Misses: 0
3f0-> Hits: 629, Late: 0, Early: 0, Misses: 0
3f1-> Hits: 3186, Late: 0, Early: 0, Misses: 0
3f2-> Hits: 2, Late: 0, Early: 0, Misses: 0
3f3-> Hits: 1610, Late: 0, Early: 0, Misses: 0
3f4-> Hits: 2543, Late: 0, Early: 0, Misses: 0
3f5-> Hits: 179, Late: 13, Early: 0, Misses: 0
3f6-> Hits: 1, Late: 0, Early: 0, Misses: 0
3f7-> Hits: 2, Late: 0, Early: 0, Misses: 0
3f8-> Hits: 554, Late: 2, Early: 0, Misses: 44
3f9-> Hits: 3188, Late: 0, Early: 0, Misses: 118
3fa-> Hits: 1, Late: 0, Early: 0, Misses: 0
3fb-> Hits: 6, Late: 0, Early: 0, Misses: 0
3fc-> Hits: 3191, Late: 0, Early: 0, Misses: 0
3fd-> Hits: 1, Late: 0, Early: 0, Misses: 0
3fe-> Hits: 249, Late: 0, Early: 0, Misses: 0
3ff-> Hits: 2, Late: 0, Early: 0, Misses: 0
400-> Hits: 17032, Late: 927, Early: 0, Misses: 1
401-> Hits: 629, Late: 2674, Early: 0, Misses: 0
402-> Hits: 89, Late: 0, Early: 0, Misses: 2
403-> Hits: 5, Late: 0, Early: 0, Misses: 0
404-> Hits: 3134, Late: 0, Early: 0, Misses: 6
406-> Hits: 532, Late: 3, Early: 0, Misses: 66
407-> Hits: 120, Late: 0, Early: 0, Misses: 0
408-> Hits: 3, Late: 1, Early: 0, Misses: 0
40a-> Hits: 14596, Late: 8, Early: 0, Misses: 0
40b-> Hits: 1, Late: 0, Early: 0, Misses: 0
40c-> Hits: 3792, Late: 0, Early: 0, Misses: 2
40e-> Hits: 6, Late: 0, Early: 0, Misses: 0
40f-> Hits: 3140, Late: 51, Early: 0, Misses: 59
410-> Hits: 14979, Late: 1072, Early: 0, Misses: 1
411-> Hits: 1, Late: 0, Early: 0, Misses: 0
412-> Hits: 13, Late: 0, Early: 0, Misses: 0
413-> Hits: 1620, Late: 0, Early: 0, Misses: 0
414-> Hits: 2244, Late: 0, Early: 0, Misses: 0
416-> Hits: 1614, Late: 60, Early: 0, Misses: 0
417-> Hits: 14406, Late: 7, Early: 0, Misses: 0
418-> Hits: 3183, Late: 1, Early: 0, Misses: 0
419-> Hits: 53, Late: 0, Early: 0, Misses: 0
41a-> Hits: 1619, Late: 0, Early: 0, Misses: 0
41b-> Hits: 1, Late: 0, Early: 0, Misses: 0
41c-> Hits: 21, Late: 0, Early: 0, Misses: 0
41e-> Hits: 7, Late: 0, Early: 0, Misses: 0
41f-> Hits: 1599, Late: 137, Early: 0, Misses: 6
420-> Hits: 35620, Late: 469, Early: 0, Misses: 648
422-> Hits: 14019, Late: 16, Early: 0, Misses: 0
423-> Hits: 32923, Late: 2649, Early: 0, Misses: 0
424-> Hits: 170, Late: 1, Early: 0, Misses: 0
425-> Hits: 35, Late: 0, Early: 0, Misses: 0
426-> Hits: 3019, Late: 0, Early: 0, Misses: 0
427-> Hits: 58, Late: 0, Early: 0, Misses: 0
428-> Hits: 3027, Late: 0, Early: 0, Misses: 0
429-> Hits: 35157, Late: 37, Early: 0, Misses: 28
42a-> Hits: 119, Late: 0, Early: 0, Misses: 0
42b-> Hits: 3, Late: 0, Early: 0, Misses: 0
42c-> Hits: 577, Late: 0, Early: 0, Misses: 0
42d-> Hits: 1, Late: 0, Early: 0, Misses: 0
42e-> Hits: 3043, Late: 0, Early: 0, Misses: 0
42f-> Hits: 3144, Late: 0, Early: 0, Misses: 0
430-> Hits: 65359, Late: 590, Early: 0, Misses: 0
433-> Hits: 35600, Late: 295, Early: 0, Misses: 165
434-> Hits: 1000, Late: 0, Early: 0, Misses: 0
435-> Hits: 57, Late: 0, Early: 0, Misses: 0
436-> Hits: 1, Late: 0, Early: 0, Misses: 0
438-> Hits: 18, Late: 0, Early: 0, Misses: 0
439-> Hits: 1, Late: 0, Early: 0, Misses: 1
43a-> Hits: 12033, Late: 965, Early: 0, Misses: 0
43b-> Hits: 2, Late: 0, Early: 0, Misses: 0
43c-> Hits: 0, Late: 1, Early: 0, Misses: 0
43e-> Hits: 1657, Late: 1, Early: 0, Misses: 0
43f-> Hits: 3017, Late: 0, Early: 0, Misses: 0
440-> Hits: 1, Late: 2, Early: 0, Misses: 1
441-> Hits: 10, Late: 1, Early: 0, Misses: 0
442-> Hits: 10, Late: 0, Early: 0, Misses: 0
444-> Hits: 3246, Late: 0, Early: 0, Misses: 12
445-> Hits: 3, Late: 0, Early: 0, Misses: 0
446-> Hits: 11, Late: 0, Early: 0, Misses: 0
447-> Hits: 2899, Late: 117, Early: 0, Misses: 0
448-> Hits: 10, Late: 1, Early: 0, Misses: 1
44a-> Hits: 39, Late: 0, Early: 0, Misses: 0
44b-> Hits: 11, Late: 0, Early: 0, Misses: 0
44c-> Hits: 1352, Late: 0, Early: 0, Misses: 0
44d-> Hits: 2772, Late: 0, Early: 0, Misses: 0
44f-> Hits: 1, Late: 0, Early: 0, Misses: 0
451-> Hits: 1, Late: 0, Early: 0, Misses: 0
452-> Hits: 117, Late: 0, Early: 0, Misses: 0
453-> Hits: 0, Late: 1, Early: 0, Misses: 0
454-> Hits: 11, Late: 0, Early: 0, Misses: 0
455-> Hits: 2668, Late: 0, Early: 0, Misses: 348
456-> Hits: 22, Late: 0, Early: 0, Misses: 0
457-> Hits: 1, Late: 0, Early: 0, Misses: 0
458-> Hits: 116, Late: 0, Early: 0, Misses: 0
459-> Hits: 10, Late: 0, Early: 0, Misses: 1
45a-> Hits: 1472, Late: 0, Early: 0, Misses: 0
45c-> Hits: 1, Late: 0, Early: 0, Misses: 0
45e-> Hits: 11, Late: 0, Early: 0, Misses: 0
45f-> Hits: 6413, Late: 0, Early: 0, Misses: 34
460-> Hits: 1, Late: 2, Early: 0, Misses: 0
461-> Hits: 980, Late: 0, Early: 0, Misses: 0
462-> Hits: 4653, Late: 0, Early: 0, Misses: 44
463-> Hits: 2, Late: 0, Early: 0, Misses: 0
464-> Hits: 53164, Late: 0, Early: 0, Misses: 8
465-> Hits: 2, Late: 2, Early: 0, Misses: 0
466-> Hits: 13, Late: 0, Early: 0, Misses: 0
467-> Hits: 3090, Late: 0, Early: 0, Misses: 42
468-> Hits: 9, Late: 0, Early: 0, Misses: 117
469-> Hits: 21, Late: 0, Early: 0, Misses: 0
46a-> Hits: 60, Late: 0, Early: 0, Misses: 0
46b-> Hits: 17, Late: 1, Early: 0, Misses: 0
46c-> Hits: 53169, Late: 22, Early: 0, Misses: 2
46d-> Hits: 1568, Late: 0, Early: 0, Misses: 0
46e-> Hits: 18, Late: 1, Early: 0, Misses: 0
46f-> Hits: 10, Late: 0, Early: 0, Misses: 0
470-> Hits: 2012, Late: 1, Early: 0, Misses: 116
471-> Hits: 1, Late: 0, Early: 0, Misses: 0
473-> Hits: 3490, Late: 0, Early: 0, Misses: 36
475-> Hits: 109, Late: 1, Early: 0, Misses: 0
477-> Hits: 1, Late: 0, Early: 0, Misses: 0
478-> Hits: 53044, Late: 150, Early: 0, Misses: 0
479-> Hits: 608, Late: 0, Early: 0, Misses: 0
47c-> Hits: 258, Late: 0, Early: 0, Misses: 9
47d-> Hits: 57, Late: 14, Early: 0, Misses: 0
47e-> Hits: 3150, Late: 0, Early: 0, Misses: 69
47f-> Hits: 53044, Late: 0, Early: 0, Misses: 2
480-> Hits: 0, Late: 2, Early: 0, Misses: 0
481-> Hits: 3, Late: 0, Early: 0, Misses: 0
482-> Hits: 12, Late: 0, Early: 0, Misses: 0
484-> Hits: 114, Late: 0, Early: 0, Misses: 3
485-> Hits: 53, Late: 0, Early: 0, Misses: 0
486-> Hits: 2969, Late: 0, Early: 0, Misses: 0
487-> Hits: 52681, Late: 573, Early: 0, Misses: 1
488-> Hits: 0, Late: 0, Early: 0, Misses: 1
48b-> Hits: 54832, Late: 45, Early: 0, Misses: 2
48d-> Hits: 1, Late: 0, Early: 0, Misses: 0
48e-> Hits: 3132, Late: 0, Early: 0, Misses: 0
48f-> Hits: 2, Late: 0, Early: 0, Misses: 0
490-> Hits: 5941, Late: 34, Early: 0, Misses: 176
491-> Hits: 1187, Late: 0, Early: 0, Misses: 0
492-> Hits: 52, Late: 0, Early: 0, Misses: 0
493-> Hits: 2, Late: 0, Early: 0, Misses: 0
495-> Hits: 5657, Late: 163, Early: 0, Misses: 0
496-> Hits: 2751, Late: 0, Early: 0, Misses: 2
497-> Hits: 4749, Late: 0, Early: 0, Misses: 0
498-> Hits: 2, Late: 0, Early: 0, Misses: 0
499-> Hits: 52588, Late: 615, Early: 0, Misses: 0
49a-> Hits: 2, Late: 0, Early: 0, Misses: 0
49b-> Hits: 60, Late: 0, Early: 0, Misses: 0
49d-> Hits: 2, Late: 1, Early: 0, Misses: 0
49e-> Hits: 5796, Late: 0, Early: 0, Misses: 2
4a0-> Hits: 53143, Late: 53, Early: 0, Misses: 0
4a1-> Hits: 1, Late: 0, Early: 0, Misses: 0
4a2-> Hits: 3588, Late: 0, Early: 0, Misses: 1
4a3-> Hits: 4641, Late: 0, Early: 0, Misses: 0
4a4-> Hits: 19, Late: 1, Early: 0, Misses: 0
4a5-> Hits: 3126, Late: 2, Early: 0, Misses: 6
4a6-> Hits: 9911, Late: 64, Early: 0, Misses: 0
4a7-> Hits: 5655, Late: 0, Early: 0, Misses: 0
4a8-> Hits: 1080, Late: 0, Early: 0, Misses: 0
4a9-> Hits: 2, Late: 1, Early: 0, Misses: 0
4aa-> Hits: 2, Late: 0, Early: 0, Misses: 0
4ab-> Hits: 0, Late: 3, Early: 0, Misses: 0
4ac-> Hits: 4, Late: 0, Early: 0, Misses: 0
4ae-> Hits: 3016, Late: 0, Early: 0, Misses: 0
4af-> Hits: 2925, Late: 0, Early: 0, Misses: 0
4b0-> Hits: 89104, Late: 353, Early: 0, Misses: 8221
4b1-> Hits: 7, Late: 0, Early: 0, Misses: 0
4b4-> Hits: 56134, Late: 17, Early: 0, Misses: 500
4b6-> Hits: 2, Late: 0, Early: 0, Misses: 0
4b7-> Hits: 3, Late: 2, Early: 0, Misses: 0
4b8-> Hits: 54618, Late: 1077, Early: 0, Misses: 0
4b9-> Hits: 11200, Late: 30, Early: 0, Misses: 0
4bb-> Hits: 161, Late: 0, Early: 0, Misses: 0
4bc-> Hits: 52071, Late: 25, Early: 0, Misses: 1120
4be-> Hits: 1620, Late: 0, Early: 0, Misses: 0
4bf-> Hits: 2, Late: 0, Early: 0, Misses: 0
4c0-> Hits: 109157, Late: 1201, Early: 0, Misses: 0
4c2-> Hits: 1, Late: 0, Early: 0, Misses: 0
4c3-> Hits: 2, Late: 0, Early: 0, Misses: 0
4c4-> Hits: 3720, Late: 0, Early: 0, Misses: 0
4c5-> Hits: 12, Late: 0, Early: 0, Misses: 0
4c6-> Hits: 57782, Late: 0, Early: 0, Misses: 0
4c7-> Hits: 18, Late: 0, Early: 0, Misses: 0
4c8-> Hits: 53148, Late: 11, Early: 0, Misses: 74
4c9-> Hits: 118, Late: 0, Early: 0, Misses: 0
4ca-> Hits: 1, Late: 2, Early: 0, Misses: 0
4cc-> Hits: 100686, Late: 437, Early: 0, Misses: 135
4cd-> Hits: 1, Late: 0, Early: 0, Misses: 0
4ce-> Hits: 13459, Late: 0, Early: 0, Misses: 0
4cf-> Hits: 52238, Late: 285, Early: 0, Misses: 30
4d0-> Hits: 68, Late: 2, Early: 0, Misses: 0
4d1-> Hits: 117, Late: 0, Early: 0, Misses: 0
4d2-> Hits: 39, Late: 0, Early: 0, Misses: 0
4d3-> Hits: 2531, Late: 0, Early: 0, Misses: 0
4d4-> Hits: 55142, Late: 28, Early: 0, Misses: 1234
4d5-> Hits: 0, Late: 1, Early: 0, Misses: 0
4d6-> Hits: 1028, Late: 0, Early: 0, Misses: 0
4d9-> Hits: 1, Late: 2, Early: 0, Misses: 0
4da-> Hits: 52323, Late: 215, Early: 0, Misses: 0
4db-> Hits: 53064, Late: 4, Early: 0, Misses: 4
4dc-> Hits: 3186, Late: 0, Early: 0, Misses: 0
4dd-> Hits: 10160, Late: 2, Early: 0, Misses: 4
4de-> Hits: 3792, Late: 0, Early: 0, Misses: 0
4df-> Hits: 46629, Late: 0, Early: 0, Misses: 1
4e0-> Hits: 609, Late: 1237, Early: 0, Misses: 0
4e1-> Hits: 1, Late: 0, Early: 0, Misses: 0
4e2-> Hits: 1, Late: 0, Early: 0, Misses: 0
4e3-> Hits: 53116, Late: 13, Early: 0, Misses: 105
4e4-> Hits: 1, Late: 0, Early: 0, Misses: 0
4e5-> Hits: 1619, Late: 3, Early: 0, Misses: 0
4e6-> Hits: 116, Late: 0, Early: 0, Misses: 0
4e7-> Hits: 51536, Late: 981, Early: 0, Misses: 0
4e9-> Hits: 3, Late: 0, Early: 0, Misses: 0
4ea-> Hits: 2550, Late: 3, Early: 0, Misses: 0
4eb-> Hits: 1680, Late: 0, Early: 0, Misses: 0
4ec-> Hits: 833, Late: 0, Early: 0, Misses: 0
4ed-> Hits: 0, Late: 1, Early: 0, Misses: 0
4ee-> Hits: 3194, Late: 0, Early: 0, Misses: 0
4f0-> Hits: 2, Late: 0, Early: 0, Misses: 0
4f2-> Hits: 664, Late: 0, Early: 0, Misses: 114
4f3-> Hits: 3, Late: 0, Early: 0, Misses: 0
4f4-> Hits: 856, Late: 701, Early: 0, Misses: 0
4f5-> Hits: 295, Late: 0, Early: 0, Misses: 0
4f6-> Hits: 21, Late: 0, Early: 0, Misses: 0
4f7-> Hits: 899, Late: 0, Early: 0, Misses: 0
4f8-> Hits: 2, Late: 0, Early: 0, Misses: 0
4fa-> Hits: 55109, Late: 766, Early: 0, Misses: 0
4fb-> Hits: 0, Late: 4, Early: 0, Misses: 0
4fc-> Hits: 10, Late: 0, Early: 0, Misses: 0
4fd-> Hits: 3132, Late: 1, Early: 0, Misses: 0
4ff-> Hits: 2785, Late: 0, Early: 0, Misses: 18
500-> Hits: 1495, Late: 49, Early: 0, Misses: 0
501-> Hits: 757, Late: 0, Early: 0, Misses: 1
502-> Hits: 2864, Late: 0, Early: 0, Misses: 0
503-> Hits: 94, Late: 1, Early: 0, Misses: 0
504-> Hits: 119, Late: 0, Early: 0, Misses: 0
505-> Hits: 4434, Late: 1, Early: 0, Misses: 0
506-> Hits: 3410, Late: 88, Early: 0, Misses: 0
507-> Hits: 55084, Late: 557, Early: 0, Misses: 0
508-> Hits: 31, Late: 0, Early: 0, Misses: 0
50a-> Hits: 2935, Late: 1, Early: 0, Misses: 0
50b-> Hits: 1670, Late: 0, Early: 0, Misses: 0
50c-> Hits: 10, Late: 0, Early: 0, Misses: 116
50d-> Hits: 29032, Late: 913, Early: 0, Misses: 0
50f-> Hits: 1, Late: 0, Early: 0, Misses: 0
510-> Hits: 16964, Late: 341, Early: 0, Misses: 0
511-> Hits: 9, Late: 0, Early: 0, Misses: 0
513-> Hits: 104, Late: 1, Early: 0, Misses: 0
514-> Hits: 2791, Late: 8, Early: 0, Misses: 0
516-> Hits: 53495, Late: 0, Early: 0, Misses: 0
517-> Hits: 1607, Late: 0, Early: 0, Misses: 0
519-> Hits: 52527, Late: 490, Early: 0, Misses: 0
51a-> Hits: 2495, Late: 3, Early: 0, Misses: 0
51b-> Hits: 3078, Late: 0, Early: 0, Misses: 175
51c-> Hits: 3133, Late: 1, Early: 0, Misses: 0
51e-> Hits: 51641, Late: 875, Early: 0, Misses: 0
51f-> Hits: 31013, Late: 50, Early: 0, Misses: 0
520-> Hits: 1, Late: 3, Early: 0, Misses: 0
521-> Hits: 48000, Late: 17, Early: 0, Misses: 0
523-> Hits: 54033, Late: 334, Early: 0, Misses: 59
524-> Hits: 29486, Late: 73, Early: 0, Misses: 0
525-> Hits: 1, Late: 2, Early: 0, Misses: 0
528-> Hits: 3115, Late: 0, Early: 0, Misses: 20
529-> Hits: 1580, Late: 30, Early: 0, Misses: 0
52b-> Hits: 1719, Late: 0, Early: 0, Misses: 0
52c-> Hits: 51276, Late: 600, Early: 0, Misses: 110
52d-> Hits: 248, Late: 0, Early: 0, Misses: 5
52e-> Hits: 29, Late: 0, Early: 0, Misses: 0
52f-> Hits: 732, Late: 0, Early: 0, Misses: 0
530-> Hits: 146, Late: 2, Early: 0, Misses: 0
531-> Hits: 77984, Late: 64, Early: 0, Misses: 3
532-> Hits: 4, Late: 6, Early: 0, Misses: 6
533-> Hits: 52041, Late: 1366, Early: 0, Misses: 0
534-> Hits: 201, Late: 188, Early: 0, Misses: 6
535-> Hits: 1427, Late: 48, Early: 0, Misses: 8
536-> Hits: 6012, Late: 220, Early: 0, Misses: 0
537-> Hits: 92, Late: 11, Early: 0, Misses: 0
538-> Hits: 1689, Late: 0, Early: 0, Misses: 0
53a-> Hits: 394, Late: 0, Early: 0, Misses: 0
53b-> Hits: 52429, Late: 307, Early: 0, Misses: 0
53d-> Hits: 1, Late: 2, Early: 0, Misses: 0
53e-> Hits: 6517, Late: 5, Early: 0, Misses: 0
540-> Hits: 7807, Late: 71, Early: 0, Misses: 25
541-> Hits: 1, Late: 0, Early: 0, Misses: 0
542-> Hits: 2263, Late: 0, Early: 0, Misses: 0
544-> Hits: 163, Late: 0, Early: 0, Misses: 0
545-> Hits: 41, Late: 0, Early: 0, Misses: 0
546-> Hits: 15, Late: 0, Early: 0, Misses: 0
548-> Hits: 238, Late: 1, Early: 0, Misses: 0
549-> Hits: 117, Late: 0, Early: 0, Misses: 0
54b-> Hits: 48378, Late: 1, Early: 0, Misses: 0
54c-> Hits: 289, Late: 0, Early: 0, Misses: 0
54d-> Hits: 101, Late: 0, Early: 0, Misses: 0
54e-> Hits: 2, Late: 0, Early: 0, Misses: 0
54f-> Hits: 2, Late: 0, Early: 0, Misses: 0
550-> Hits: 39, Late: 0, Early: 0, Misses: 0
551-> Hits: 0, Late: 2, Early: 0, Misses: 114
552-> Hits: 3, Late: 1, Early: 0, Misses: 0
553-> Hits: 51473, Late: 1076, Early: 0, Misses: 0
554-> Hits: 23573, Late: 15, Early: 0, Misses: 0
555-> Hits: 120, Late: 1, Early: 0, Misses: 0
556-> Hits: 59424, Late: 0, Early: 0, Misses: 0
557-> Hits: 4739, Late: 0, Early: 0, Misses: 1
558-> Hits: 51257, Late: 1392, Early: 0, Misses: 0
559-> Hits: 1, Late: 0, Early: 0, Misses: 0
55a-> Hits: 2, Late: 3, Early: 0, Misses: 0
55b-> Hits: 6268, Late: 37, Early: 0, Misses: 13
55c-> Hits: 33, Late: 0, Early: 0, Misses: 0
55d-> Hits: 2844, Late: 1, Early: 0, Misses: 0
55e-> Hits: 61, Late: 0, Early: 0, Misses: 58
55f-> Hits: 1551, Late: 1, Early: 0, Misses: 0
560-> Hits: 8147, Late: 2, Early: 0, Misses: 0
561-> Hits: 8, Late: 2, Early: 0, Misses: 1
562-> Hits: 53201, Late: 0, Early: 0, Misses: 0
563-> Hits: 0, Late: 1, Early: 0, Misses: 0
564-> Hits: 56, Late: 8, Early: 0, Misses: 8
565-> Hits: 118, Late: 0, Early: 0, Misses: 0
566-> Hits: 120, Late: 0, Early: 0, Misses: 0
567-> Hits: 1736, Late: 1, Early: 0, Misses: 0
569-> Hits: 2894, Late: 0, Early: 0, Misses: 0
56a-> Hits: 93, Late: 0, Early: 0, Misses: 0
56c-> Hits: 125, Late: 0, Early: 0, Misses: 0
56d-> Hits: 110, Late: 0, Early: 0, Misses: 0
56f-> Hits: 896, Late: 0, Early: 0, Misses: 1
571-> Hits: 18184, Late: 499, Early: 0, Misses: 0
572-> Hits: 13, Late: 0, Early: 0, Misses: 0
573-> Hits: 92, Late: 0, Early: 0, Misses: 0
574-> Hits: 2, Late: 2, Early: 0, Misses: 0
575-> Hits: 2, Late: 0, Early: 0, Misses: 0
577-> Hits: 38, Late: 0, Early: 0, Misses: 0
57a-> Hits: 15, Late: 1, Early: 0, Misses: 0
57c-> Hits: 2, Late: 1, Early: 0, Misses: 116
57d-> Hits: 308, Late: 0, Early: 0, Misses: 6
57e-> Hits: 20, Late: 0, Early: 0, Misses: 0
57f-> Hits: 3097, Late: 0, Early: 0, Misses: 48
580-> Hits: 145, Late: 0, Early: 0, Misses: 0
581-> Hits: 253, Late: 0, Early: 0, Misses: 1
582-> Hits: 15, Late: 0, Early: 0, Misses: 0
583-> Hits: 25923, Late: 809, Early: 0, Misses: 0
584-> Hits: 19, Late: 2, Early: 0, Misses: 54
585-> Hits: 19, Late: 0, Early: 0, Misses: 0
587-> Hits: 6835, Late: 0, Early: 0, Misses: 0
588-> Hits: 130, Late: 1, Early: 0, Misses: 0
589-> Hits: 72, Late: 49, Early: 0, Misses: 0
58a-> Hits: 1562, Late: 0, Early: 0, Misses: 0
58b-> Hits: 3133, Late: 0, Early: 0, Misses: 0
58c-> Hits: 0, Late: 1, Early: 0, Misses: 0
58d-> Hits: 3125, Late: 0, Early: 0, Misses: 100
58f-> Hits: 2, Late: 0, Early: 0, Misses: 0
590-> Hits: 0, Late: 2, Early: 0, Misses: 0
591-> Hits: 115, Late: 0, Early: 0, Misses: 0
592-> Hits: 1648, Late: 4, Early: 0, Misses: 0
593-> Hits: 9, Late: 0, Early: 0, Misses: 0
594-> Hits: 2, Late: 0, Early: 0, Misses: 0
595-> Hits: 6184, Late: 0, Early: 0, Misses: 46
597-> Hits: 26422, Late: 3, Early: 0, Misses: 23
598-> Hits: 55, Late: 0, Early: 0, Misses: 0
59a-> Hits: 460, Late: 0, Early: 0, Misses: 0
59b-> Hits: 1425, Late: 0, Early: 0, Misses: 1
59c-> Hits: 179, Late: 0, Early: 0, Misses: 0
59d-> Hits: 18550, Late: 127, Early: 0, Misses: 0
59e-> Hits: 21670, Late: 3, Early: 0, Misses: 114
59f-> Hits: 2763, Late: 0, Early: 0, Misses: 0
5a0-> Hits: 60, Late: 0, Early: 0, Misses: 0
5a1-> Hits: 2213, Late: 0, Early: 0, Misses: 1
5a2-> Hits: 1307, Late: 0, Early: 0, Misses: 0
5a3-> Hits: 3112, Late: 2, Early: 0, Misses: 20
5a5-> Hits: 120, Late: 0, Early: 0, Misses: 0
5a7-> Hits: 43, Late: 0, Early: 0, Misses: 0
5a9-> Hits: 63, Late: 4, Early: 0, Misses: 0
5aa-> Hits: 685, Late: 2, Early: 0, Misses: 0
5ab-> Hits: 123457, Late: 1532, Early: 0, Misses: 0
5ac-> Hits: 23, Late: 0, Early: 0, Misses: 0
5ad-> Hits: 233, Late: 0, Early: 0, Misses: 1
5ae-> Hits: 2730, Late: 0, Early: 0, Misses: 0
5b0-> Hits: 116254, Late: 28, Early: 0, Misses: 0
5b1-> Hits: 1, Late: 0, Early: 0, Misses: 0
5b2-> Hits: 559, Late: 1, Early: 0, Misses: 0
5b3-> Hits: 20085, Late: 148, Early: 0, Misses: 0
5b4-> Hits: 140, Late: 0, Early: 0, Misses: 0
5b5-> Hits: 98439, Late: 309, Early: 0, Misses: 137
5b6-> Hits: 3017, Late: 0, Early: 0, Misses: 1
5b7-> Hits: 1, Late: 0, Early: 0, Misses: 0
5b8-> Hits: 2, Late: 0, Early: 0, Misses: 0
5b9-> Hits: 3559, Late: 0, Early: 0, Misses: 0
5ba-> Hits: 3020, Late: 8, Early: 0, Misses: 4
5bb-> Hits: 2, Late: 0, Early: 0, Misses: 0
5bc-> Hits: 33, Late: 0, Early: 0, Misses: 0
5bd-> Hits: 5, Late: 0, Early: 0, Misses: 116
5be-> Hits: 26341, Late: 3, Early: 0, Misses: 0
5bf-> Hits: 19, Late: 0, Early: 0, Misses: 0
5c0-> Hits: 54755, Late: 301, Early: 0, Misses: 0
5c1-> Hits: 0, Late: 1, Early: 0, Misses: 1
5c2-> Hits: 2870, Late: 3, Early: 0, Misses: 171
5c3-> Hits: 2, Late: 0, Early: 0, Misses: 0
5c4-> Hits: 1807, Late: 75, Early: 0, Misses: 0
5c5-> Hits: 19554, Late: 4, Early: 0, Misses: 0
5c6-> Hits: 1, Late: 0, Early: 0, Misses: 0
5c7-> Hits: 3704, Late: 261, Early: 0, Misses: 0
5c8-> Hits: 9, Late: 0, Early: 0, Misses: 0
5c9-> Hits: 5, Late: 0, Early: 0, Misses: 0
5ca-> Hits: 3, Late: 5, Early: 0, Misses: 1
5cb-> Hits: 3, Late: 0, Early: 0, Misses: 0
5cc-> Hits: 26748, Late: 114, Early: 0, Misses: 0
5cd-> Hits: 30, Late: 0, Early: 0, Misses: 0
5ce-> Hits: 1482, Late: 1, Early: 0, Misses: 0
5cf-> Hits: 2844, Late: 5, Early: 0, Misses: 286
5d0-> Hits: 0, Late: 2, Early: 0, Misses: 0
5d1-> Hits: 3, Late: 0, Early: 0, Misses: 0
5d2-> Hits: 1, Late: 0, Early: 0, Misses: 0
5d4-> Hits: 139, Late: 0, Early: 0, Misses: 0
5d5-> Hits: 22, Late: 0, Early: 0, Misses: 0
5d6-> Hits: 39, Late: 0, Early: 0, Misses: 0
5d7-> Hits: 116, Late: 1, Early: 0, Misses: 0
5d8-> Hits: 22, Late: 0, Early: 0, Misses: 0
5d9-> Hits: 25957, Late: 7, Early: 0, Misses: 18
5da-> Hits: 10, Late: 0, Early: 0, Misses: 0
5db-> Hits: 1620, Late: 0, Early: 0, Misses: 1
5dc-> Hits: 2, Late: 0, Early: 0, Misses: 0
5dd-> Hits: 7, Late: 0, Early: 0, Misses: 0
5de-> Hits: 43345, Late: 691, Early: 0, Misses: 0
5df-> Hits: 116, Late: 0, Early: 0, Misses: 0
5e0-> Hits: 25532, Late: 52, Early: 0, Misses: 0
5e1-> Hits: 3183, Late: 1, Early: 0, Misses: 0
5e2-> Hits: 3132, Late: 0, Early: 0, Misses: 0
5e3-> Hits: 24536, Late: 12, Early: 0, Misses: 0
5e4-> Hits: 1, Late: 1, Early: 0, Misses: 0
5e5-> Hits: 22181, Late: 3453, Early: 0, Misses: 0
5e6-> Hits: 83, Late: 0, Early: 0, Misses: 0
5e7-> Hits: 116, Late: 1, Early: 0, Misses: 0
5e8-> Hits: 2, Late: 0, Early: 0, Misses: 0
5e9-> Hits: 25027, Late: 305, Early: 0, Misses: 0
5eb-> Hits: 4105, Late: 45, Early: 0, Misses: 1
5ec-> Hits: 139, Late: 0, Early: 0, Misses: 0
5ed-> Hits: 21557, Late: 3713, Early: 0, Misses: 0
5ee-> Hits: 25935, Late: 221, Early: 0, Misses: 0
5ef-> Hits: 0, Late: 1, Early: 0, Misses: 0
5f0-> Hits: 3708, Late: 4, Early: 0, Misses: 576
5f1-> Hits: 21576, Late: 12, Early: 0, Misses: 0
5f2-> Hits: 25461, Late: 20, Early: 0, Misses: 0
5f3-> Hits: 25342, Late: 4, Early: 0, Misses: 507
5f4-> Hits: 365, Late: 0, Early: 0, Misses: 0
5f5-> Hits: 46617, Late: 332, Early: 0, Misses: 0
5f6-> Hits: 32, Late: 0, Early: 0, Misses: 0
5f7-> Hits: 312, Late: 0, Early: 0, Misses: 0
5f8-> Hits: 2, Late: 0, Early: 0, Misses: 0
5f9-> Hits: 3419, Late: 0, Early: 0, Misses: 58
5fb-> Hits: 303, Late: 1, Early: 0, Misses: 0
5fc-> Hits: 139, Late: 0, Early: 0, Misses: 58
5fd-> Hits: 45161, Late: 33, Early: 0, Misses: 0
5fe-> Hits: 15, Late: 0, Early: 0, Misses: 1
5ff-> Hits: 1, Late: 2, Early: 0, Misses: 0
600-> Hits: 4932, Late: 11, Early: 0, Misses: 400
601-> Hits: 2, Late: 0, Early: 0, Misses: 0
603-> Hits: 6263, Late: 89, Early: 0, Misses: 0
604-> Hits: 65, Late: 1, Early: 0, Misses: 0
605-> Hits: 5812, Late: 0, Early: 0, Misses: 0
606-> Hits: 5, Late: 0, Early: 0, Misses: 0
607-> Hits: 39, Late: 0, Early: 0, Misses: 0
608-> Hits: 3103, Late: 6, Early: 0, Misses: 0
60a-> Hits: 3132, Late: 0, Early: 0, Misses: 0
60b-> Hits: 4, Late: 0, Early: 0, Misses: 1
60c-> Hits: 2, Late: 0, Early: 0, Misses: 0
60d-> Hits: 8, Late: 0, Early: 0, Misses: 0
60e-> Hits: 4, Late: 0, Early: 0, Misses: 0
60f-> Hits: 21, Late: 0, Early: 0, Misses: 0
610-> Hits: 99835, Late: 2670, Early: 0, Misses: 22
612-> Hits: 19, Late: 0, Early: 0, Misses: 0
613-> Hits: 49967, Late: 51, Early: 0, Misses: 598
614-> Hits: 4552, Late: 1, Early: 0, Misses: 254
615-> Hits: 53552, Late: 371, Early: 0, Misses: 20
616-> Hits: 3110, Late: 0, Early: 0, Misses: 24
617-> Hits: 2372, Late: 0, Early: 0, Misses: 2
618-> Hits: 4, Late: 0, Early: 0, Misses: 0
619-> Hits: 78862, Late: 217, Early: 0, Misses: 236
61a-> Hits: 2, Late: 0, Early: 0, Misses: 0
61b-> Hits: 4, Late: 0, Early: 0, Misses: 0
61c-> Hits: 3, Late: 0, Early: 0, Misses: 0
61d-> Hits: 113, Late: 0, Early: 0, Misses: 0
61e-> Hits: 4, Late: 0, Early: 0, Misses: 0
61f-> Hits: 0, Late: 12, Early: 0, Misses: 0
620-> Hits: 8205, Late: 15754, Early: 0, Misses: 0
621-> Hits: 60, Late: 0, Early: 0, Misses: 0
622-> Hits: 2, Late: 0, Early: 0, Misses: 1
623-> Hits: 1620, Late: 0, Early: 0, Misses: 0
624-> Hits: 54166, Late: 285, Early: 0, Misses: 30
625-> Hits: 120, Late: 0, Early: 0, Misses: 0
626-> Hits: 16, Late: 0, Early: 0, Misses: 4
627-> Hits: 585, Late: 2, Early: 0, Misses: 0
628-> Hits: 33, Late: 0, Early: 0, Misses: 0
629-> Hits: 8080, Late: 24, Early: 0, Misses: 148
62a-> Hits: 841, Late: 77, Early: 0, Misses: 0
62b-> Hits: 66, Late: 0, Early: 0, Misses: 0
62c-> Hits: 127, Late: 0, Early: 0, Misses: 0
62d-> Hits: 50594, Late: 531, Early: 0, Misses: 0
62e-> Hits: 0, Late: 0, Early: 0, Misses: 1
62f-> Hits: 2, Late: 0, Early: 0, Misses: 0
630-> Hits: 3780, Late: 2853, Early: 0, Misses: 0
632-> Hits: 50249, Late: 50, Early: 0, Misses: 465
634-> Hits: 6627, Late: 6290, Early: 0, Misses: 0
635-> Hits: 56, Late: 0, Early: 0, Misses: 0
636-> Hits: 5, Late: 0, Early: 0, Misses: 0
638-> Hits: 150, Late: 0, Early: 0, Misses: 0
639-> Hits: 19954, Late: 43, Early: 0, Misses: 405
63a-> Hits: 39572, Late: 1, Early: 0, Misses: 0
63b-> Hits: 1, Late: 1, Early: 0, Misses: 3
63c-> Hits: 1, Late: 0, Early: 0, Misses: 0
63d-> Hits: 9, Late: 0, Early: 0, Misses: 0
63e-> Hits: 3299, Late: 0, Early: 0, Misses: 0
640-> Hits: 1765, Late: 0, Early: 0, Misses: 0
641-> Hits: 72, Late: 0, Early: 0, Misses: 0
642-> Hits: 48646, Late: 597, Early: 0, Misses: 0
643-> Hits: 372, Late: 0, Early: 0, Misses: 0
644-> Hits: 144, Late: 2, Early: 0, Misses: 0
645-> Hits: 4, Late: 0, Early: 0, Misses: 2
646-> Hits: 71493, Late: 49, Early: 0, Misses: 0
647-> Hits: 5444, Late: 0, Early: 0, Misses: 0
648-> Hits: 3269, Late: 73, Early: 0, Misses: 161
649-> Hits: 11, Late: 0, Early: 0, Misses: 0
64a-> Hits: 52, Late: 0, Early: 0, Misses: 0
64b-> Hits: 29797, Late: 61, Early: 0, Misses: 0
64c-> Hits: 1, Late: 0, Early: 0, Misses: 0
64d-> Hits: 41, Late: 0, Early: 0, Misses: 0
64e-> Hits: 48176, Late: 7, Early: 0, Misses: 584
64f-> Hits: 14, Late: 0, Early: 0, Misses: 0
650-> Hits: 1, Late: 1, Early: 0, Misses: 0
651-> Hits: 1247, Late: 0, Early: 0, Misses: 1
652-> Hits: 11, Late: 0, Early: 0, Misses: 0
653-> Hits: 24893, Late: 354, Early: 0, Misses: 0
654-> Hits: 116, Late: 1, Early: 0, Misses: 0
656-> Hits: 2910, Late: 0, Early: 0, Misses: 35
657-> Hits: 0, Late: 1, Early: 0, Misses: 0
658-> Hits: 1627, Late: 0, Early: 0, Misses: 0
659-> Hits: 50667, Late: 1106, Early: 0, Misses: 0
65a-> Hits: 15, Late: 0, Early: 0, Misses: 0
65b-> Hits: 3011, Late: 13, Early: 0, Misses: 1
65c-> Hits: 1, Late: 0, Early: 0, Misses: 0
65d-> Hits: 3459, Late: 0, Early: 0, Misses: 0
65e-> Hits: 10, Late: 2, Early: 0, Misses: 0
660-> Hits: 768, Late: 0, Early: 0, Misses: 5
661-> Hits: 740, Late: 1, Early: 0, Misses: 1
662-> Hits: 6165, Late: 0, Early: 0, Misses: 0
663-> Hits: 26155, Late: 6, Early: 0, Misses: 390
664-> Hits: 2, Late: 0, Early: 0, Misses: 0
665-> Hits: 47651, Late: 171, Early: 0, Misses: 906
666-> Hits: 624, Late: 5, Early: 0, Misses: 0
667-> Hits: 9, Late: 0, Early: 0, Misses: 0
668-> Hits: 25786, Late: 2, Early: 0, Misses: 0
669-> Hits: 5, Late: 0, Early: 0, Misses: 0
66a-> Hits: 3, Late: 0, Early: 0, Misses: 1
66b-> Hits: 1, Late: 1, Early: 0, Misses: 0
[...]
e72-> Hits: 1598, Late: 0, Early: 0, Misses: 0
e73-> Hits: 2, Late: 1, Early: 0, Misses: 0
e74-> Hits: 63, Late: 0, Early: 0, Misses: 0
e75-> Hits: 1971, Late: 0, Early: 0, Misses: 0
e76-> Hits: 2, Late: 0, Early: 0, Misses: 0
e77-> Hits: 22, Late: 0, Early: 0, Misses: 2
e78-> Hits: 2, Late: 0, Early: 0, Misses: 0
e79-> Hits: 60, Late: 0, Early: 0, Misses: 0
e7a-> Hits: 72, Late: 3, Early: 0, Misses: 0
e7b-> Hits: 17070, Late: 3011, Early: 0, Misses: 0
e7c-> Hits: 816, Late: 0, Early: 0, Misses: 0
e7d-> Hits: 3069, Late: 0, Early: 0, Misses: 0
e80-> Hits: 19918, Late: 4, Early: 0, Misses: 0
e82-> Hits: 60, Late: 2, Early: 0, Misses: 0
e83-> Hits: 2244, Late: 0, Early: 0, Misses: 0
e84-> Hits: 4, Late: 0, Early: 0, Misses: 0
e85-> Hits: 6083, Late: 113, Early: 0, Misses: 6
e86-> Hits: 10, Late: 0, Early: 0, Misses: 0
e87-> Hits: 0, Late: 1, Early: 0, Misses: 0
e88-> Hits: 0, Late: 2, Early: 0, Misses: 0
e89-> Hits: 3, Late: 0, Early: 0, Misses: 0
e8a-> Hits: 198, Late: 0, Early: 0, Misses: 0
e8b-> Hits: 329, Late: 3, Early: 0, Misses: 0
e8c-> Hits: 22289, Late: 0, Early: 0, Misses: 0
e8d-> Hits: 3142, Late: 2, Early: 0, Misses: 0
e8e-> Hits: 3, Late: 0, Early: 0, Misses: 0
e8f-> Hits: 4, Late: 11, Early: 0, Misses: 0
e90-> Hits: 47, Late: 0, Early: 0, Misses: 0
e91-> Hits: 19, Late: 0, Early: 0, Misses: 0
e92-> Hits: 19910, Late: 2720, Early: 0, Misses: 15
e93-> Hits: 3, Late: 0, Early: 0, Misses: 0
e94-> Hits: 3132, Late: 0, Early: 0, Misses: 0
e95-> Hits: 3, Late: 0, Early: 0, Misses: 0
e96-> Hits: 56, Late: 0, Early: 0, Misses: 0
e97-> Hits: 22125, Late: 185, Early: 0, Misses: 0
e98-> Hits: 8, Late: 1, Early: 0, Misses: 1
e99-> Hits: 1709, Late: 0, Early: 0, Misses: 0
e9a-> Hits: 1622, Late: 0, Early: 0, Misses: 0
e9b-> Hits: 4, Late: 0, Early: 0, Misses: 0
e9c-> Hits: 377, Late: 0, Early: 0, Misses: 0
e9d-> Hits: 4, Late: 1, Early: 0, Misses: 0
e9f-> Hits: 118, Late: 0, Early: 0, Misses: 0
ea0-> Hits: 63, Late: 4, Early: 0, Misses: 2
ea1-> Hits: 19456, Late: 0, Early: 0, Misses: 1
ea2-> Hits: 1623, Late: 0, Early: 0, Misses: 0
ea3-> Hits: 1, Late: 0, Early: 0, Misses: 0
ea4-> Hits: 1437, Late: 4, Early: 0, Misses: 0
ea5-> Hits: 124, Late: 0, Early: 0, Misses: 0
ea7-> Hits: 117, Late: 0, Early: 0, Misses: 0
ea8-> Hits: 3, Late: 3, Early: 0, Misses: 0
ea9-> Hits: 19432, Late: 0, Early: 0, Misses: 0
eaa-> Hits: 37, Late: 0, Early: 0, Misses: 0
eab-> Hits: 807, Late: 0, Early: 0, Misses: 0
eac-> Hits: 632, Late: 0, Early: 0, Misses: 0
ead-> Hits: 2, Late: 0, Early: 0, Misses: 0
eaf-> Hits: 177, Late: 1, Early: 0, Misses: 0
eb0-> Hits: 0, Late: 5, Early: 0, Misses: 0
eb1-> Hits: 1708, Late: 0, Early: 0, Misses: 0
eb2-> Hits: 3, Late: 0, Early: 0, Misses: 0
eb3-> Hits: 3, Late: 0, Early: 0, Misses: 0
eb4-> Hits: 340, Late: 2, Early: 0, Misses: 0
eb6-> Hits: 1, Late: 1, Early: 0, Misses: 0
eb7-> Hits: 1, Late: 0, Early: 0, Misses: 0
eb8-> Hits: 116, Late: 1, Early: 0, Misses: 0
eb9-> Hits: 3, Late: 0, Early: 0, Misses: 0
eba-> Hits: 3, Late: 0, Early: 0, Misses: 0
ebb-> Hits: 109, Late: 0, Early: 0, Misses: 0
ebc-> Hits: 1548, Late: 0, Early: 0, Misses: 0
ebe-> Hits: 48, Late: 0, Early: 0, Misses: 0
ebf-> Hits: 1, Late: 0, Early: 0, Misses: 0
ec0-> Hits: 23563, Late: 2929, Early: 0, Misses: 0
ec1-> Hits: 1, Late: 0, Early: 0, Misses: 0
ec2-> Hits: 3, Late: 0, Early: 0, Misses: 0
ec3-> Hits: 5, Late: 0, Early: 0, Misses: 0
ec4-> Hits: 6622, Late: 1051, Early: 0, Misses: 0
ec5-> Hits: 3184, Late: 0, Early: 0, Misses: 0
ec7-> Hits: 1620, Late: 0, Early: 0, Misses: 0
ec8-> Hits: 29, Late: 1, Early: 0, Misses: 36
ec9-> Hits: 22292, Late: 3492, Early: 0, Misses: 0
eca-> Hits: 4, Late: 2, Early: 0, Misses: 0
ecb-> Hits: 66, Late: 16, Early: 0, Misses: 1
ecc-> Hits: 412, Late: 1, Early: 0, Misses: 37
ecd-> Hits: 25126, Late: 463, Early: 0, Misses: 0
ece-> Hits: 5699, Late: 1193, Early: 0, Misses: 1
ed0-> Hits: 5, Late: 4, Early: 0, Misses: 1
ed1-> Hits: 10, Late: 0, Early: 0, Misses: 0
ed2-> Hits: 2, Late: 0, Early: 0, Misses: 0
ed3-> Hits: 23638, Late: 173, Early: 0, Misses: 0
ed4-> Hits: 322, Late: 0, Early: 0, Misses: 0
ed5-> Hits: 164, Late: 20, Early: 0, Misses: 0
ed7-> Hits: 1, Late: 0, Early: 0, Misses: 0
ed8-> Hits: 3, Late: 3, Early: 0, Misses: 0
eda-> Hits: 3, Late: 2, Early: 0, Misses: 0
edb-> Hits: 2, Late: 0, Early: 0, Misses: 0
edc-> Hits: 25, Late: 1, Early: 0, Misses: 37
edd-> Hits: 91, Late: 0, Early: 0, Misses: 0
ede-> Hits: 1562, Late: 1, Early: 0, Misses: 0
edf-> Hits: 1649, Late: 0, Early: 0, Misses: 0
ee0-> Hits: 4542, Late: 3, Early: 0, Misses: 50
ee1-> Hits: 1710, Late: 0, Early: 0, Misses: 0
ee5-> Hits: 345, Late: 0, Early: 0, Misses: 0
ee6-> Hits: 11, Late: 0, Early: 0, Misses: 0
ee7-> Hits: 3128, Late: 0, Early: 0, Misses: 0
ee8-> Hits: 17, Late: 1, Early: 0, Misses: 50
ee9-> Hits: 15, Late: 0, Early: 0, Misses: 0
eea-> Hits: 6343, Late: 29, Early: 0, Misses: 0
eeb-> Hits: 10, Late: 0, Early: 0, Misses: 0
eec-> Hits: 2, Late: 0, Early: 0, Misses: 0
eed-> Hits: 64, Late: 0, Early: 0, Misses: 0
eee-> Hits: 69, Late: 0, Early: 0, Misses: 0
ef0-> Hits: 46100, Late: 222, Early: 0, Misses: 769
ef1-> Hits: 10, Late: 2, Early: 0, Misses: 0
ef3-> Hits: 2, Late: 0, Early: 0, Misses: 0
ef4-> Hits: 2, Late: 0, Early: 0, Misses: 0
ef5-> Hits: 46192, Late: 234, Early: 0, Misses: 484
ef6-> Hits: 2, Late: 6, Early: 0, Misses: 0
ef7-> Hits: 0, Late: 2, Early: 0, Misses: 0
ef8-> Hits: 7, Late: 1, Early: 0, Misses: 0
ef9-> Hits: 3145, Late: 0, Early: 0, Misses: 0
efa-> Hits: 1620, Late: 0, Early: 0, Misses: 0
efb-> Hits: 2, Late: 0, Early: 0, Misses: 0
efd-> Hits: 2, Late: 1, Early: 0, Misses: 0
efe-> Hits: 16642, Late: 49, Early: 0, Misses: 0
eff-> Hits: 70, Late: 0, Early: 0, Misses: 0
f00-> Hits: 54214, Late: 146, Early: 0, Misses: 1
f01-> Hits: 42, Late: 0, Early: 0, Misses: 0
f02-> Hits: 4, Late: 0, Early: 0, Misses: 0
f03-> Hits: 8, Late: 0, Early: 0, Misses: 0
f05-> Hits: 47760, Late: 0, Early: 0, Misses: 0
f06-> Hits: 1569, Late: 0, Early: 0, Misses: 0
f07-> Hits: 118, Late: 0, Early: 0, Misses: 0
f08-> Hits: 3, Late: 0, Early: 0, Misses: 0
f09-> Hits: 23209, Late: 1165, Early: 0, Misses: 0
f0a-> Hits: 3, Late: 0, Early: 0, Misses: 0
f0b-> Hits: 7, Late: 0, Early: 0, Misses: 0
f0c-> Hits: 61, Late: 0, Early: 0, Misses: 0
f0d-> Hits: 1560, Late: 0, Early: 0, Misses: 0
f0e-> Hits: 28470, Late: 78, Early: 0, Misses: 0
f0f-> Hits: 16178, Late: 66, Early: 0, Misses: 0
f10-> Hits: 13, Late: 3, Early: 0, Misses: 0
f12-> Hits: 30, Late: 2, Early: 0, Misses: 0
f13-> Hits: 28359, Late: 124, Early: 0, Misses: 0
f14-> Hits: 2, Late: 1, Early: 0, Misses: 0
f15-> Hits: 122, Late: 0, Early: 0, Misses: 0
f16-> Hits: 10, Late: 0, Early: 0, Misses: 0
f18-> Hits: 3, Late: 2, Early: 0, Misses: 0
f19-> Hits: 48, Late: 0, Early: 0, Misses: 0
f1a-> Hits: 6, Late: 0, Early: 0, Misses: 0
f1b-> Hits: 4051, Late: 2, Early: 0, Misses: 0
f1c-> Hits: 1, Late: 0, Early: 0, Misses: 1
f1e-> Hits: 10, Late: 0, Early: 0, Misses: 0
f1f-> Hits: 28439, Late: 7, Early: 0, Misses: 1
f20-> Hits: 579, Late: 75, Early: 0, Misses: 0
f21-> Hits: 2, Late: 0, Early: 0, Misses: 0
f22-> Hits: 320, Late: 2, Early: 0, Misses: 57
f23-> Hits: 3131, Late: 0, Early: 0, Misses: 1
f24-> Hits: 55591, Late: 199, Early: 0, Misses: 0
f26-> Hits: 0, Late: 1, Early: 0, Misses: 0
f27-> Hits: 1, Late: 0, Early: 0, Misses: 0
f28-> Hits: 0, Late: 0, Early: 0, Misses: 1
f29-> Hits: 7590, Late: 25, Early: 0, Misses: 0
f2a-> Hits: 686, Late: 2740, Early: 0, Misses: 0
f2b-> Hits: 339, Late: 0, Early: 0, Misses: 0
f2c-> Hits: 9, Late: 0, Early: 0, Misses: 0
f2d-> Hits: 1, Late: 1, Early: 0, Misses: 0
f2e-> Hits: 1736, Late: 2, Early: 0, Misses: 116
f2f-> Hits: 2, Late: 0, Early: 0, Misses: 4
f30-> Hits: 3072, Late: 1, Early: 0, Misses: 1
f31-> Hits: 2, Late: 0, Early: 0, Misses: 0
f32-> Hits: 122, Late: 0, Early: 0, Misses: 0
f33-> Hits: 6037, Late: 257, Early: 0, Misses: 0
f34-> Hits: 16120, Late: 61, Early: 0, Misses: 0
f35-> Hits: 247, Late: 11, Early: 0, Misses: 0
f36-> Hits: 26, Late: 0, Early: 0, Misses: 0
f37-> Hits: 1, Late: 1, Early: 0, Misses: 0
f38-> Hits: 3, Late: 2, Early: 0, Misses: 0
f39-> Hits: 13442, Late: 57, Early: 0, Misses: 1
f3a-> Hits: 1714, Late: 0, Early: 0, Misses: 0
f3b-> Hits: 20, Late: 0, Early: 0, Misses: 0
f3c-> Hits: 2, Late: 0, Early: 0, Misses: 0
f3d-> Hits: 10, Late: 0, Early: 0, Misses: 0
f3e-> Hits: 3068, Late: 0, Early: 0, Misses: 0
f40-> Hits: 1416, Late: 107, Early: 0, Misses: 0
f41-> Hits: 1, Late: 0, Early: 0, Misses: 1
f42-> Hits: 2767, Late: 214, Early: 0, Misses: 0
f43-> Hits: 3221, Late: 0, Early: 0, Misses: 0
f44-> Hits: 73, Late: 0, Early: 0, Misses: 45
f46-> Hits: 37, Late: 0, Early: 0, Misses: 0
f47-> Hits: 9, Late: 1, Early: 0, Misses: 0
f48-> Hits: 989, Late: 392, Early: 0, Misses: 0
f49-> Hits: 22144, Late: 898, Early: 0, Misses: 0
f4a-> Hits: 3200, Late: 0, Early: 0, Misses: 0
f4b-> Hits: 3105, Late: 0, Early: 0, Misses: 0
f4c-> Hits: 6, Late: 0, Early: 0, Misses: 0
f4d-> Hits: 19526, Late: 0, Early: 0, Misses: 38
f4e-> Hits: 2570, Late: 0, Early: 0, Misses: 0
f4f-> Hits: 1, Late: 0, Early: 0, Misses: 2
f50-> Hits: 304, Late: 28, Early: 0, Misses: 0
f51-> Hits: 1685, Late: 0, Early: 0, Misses: 0
f52-> Hits: 3135, Late: 1, Early: 0, Misses: 0
f55-> Hits: 27702, Late: 26, Early: 0, Misses: 0
f56-> Hits: 544, Late: 0, Early: 0, Misses: 0
f57-> Hits: 4, Late: 0, Early: 0, Misses: 0
f58-> Hits: 5, Late: 0, Early: 0, Misses: 0
f59-> Hits: 4589, Late: 792, Early: 0, Misses: 0
f5a-> Hits: 9949, Late: 4, Early: 0, Misses: 111
f5b-> Hits: 118, Late: 0, Early: 0, Misses: 0
f5c-> Hits: 2, Late: 0, Early: 0, Misses: 0
f5d-> Hits: 0, Late: 2, Early: 0, Misses: 0
f5e-> Hits: 1, Late: 0, Early: 0, Misses: 0
f5f-> Hits: 2, Late: 0, Early: 0, Misses: 0
f60-> Hits: 26007, Late: 7530, Early: 0, Misses: 2
f61-> Hits: 27779, Late: 12, Early: 0, Misses: 0
f62-> Hits: 2, Late: 0, Early: 0, Misses: 0
f64-> Hits: 1540, Late: 0, Early: 0, Misses: 0
f65-> Hits: 303, Late: 8, Early: 0, Misses: 17
f67-> Hits: 118, Late: 0, Early: 0, Misses: 0
f68-> Hits: 34, Late: 0, Early: 0, Misses: 0
f69-> Hits: 1439, Late: 619, Early: 0, Misses: 0
f6a-> Hits: 32112, Late: 98, Early: 0, Misses: 19
f6b-> Hits: 21811, Late: 59, Early: 0, Misses: 235
f6c-> Hits: 26370, Late: 6, Early: 0, Misses: 571
f6d-> Hits: 0, Late: 2, Early: 0, Misses: 0
f6e-> Hits: 117, Late: 0, Early: 0, Misses: 2
f6f-> Hits: 2, Late: 0, Early: 0, Misses: 0
f70-> Hits: 1484, Late: 150, Early: 0, Misses: 0
f71-> Hits: 27827, Late: 208, Early: 0, Misses: 1
f72-> Hits: 24439, Late: 6113, Early: 0, Misses: 0
f73-> Hits: 1648, Late: 90, Early: 0, Misses: 0
f74-> Hits: 5, Late: 0, Early: 0, Misses: 0
f75-> Hits: 5, Late: 0, Early: 0, Misses: 0
f76-> Hits: 1622, Late: 2, Early: 0, Misses: 0
f77-> Hits: 1, Late: 0, Early: 0, Misses: 0
f78-> Hits: 28389, Late: 7, Early: 0, Misses: 0
f79-> Hits: 1676, Late: 0, Early: 0, Misses: 0
f7a-> Hits: 2, Late: 0, Early: 0, Misses: 1
f7b-> Hits: 1588, Late: 303, Early: 0, Misses: 0
f7c-> Hits: 27984, Late: 127, Early: 0, Misses: 118
f7e-> Hits: 23671, Late: 1, Early: 0, Misses: 0
f7f-> Hits: 5, Late: 0, Early: 0, Misses: 0
f80-> Hits: 8552, Late: 6, Early: 0, Misses: 74
f81-> Hits: 27960, Late: 120, Early: 0, Misses: 0
f82-> Hits: 1563, Late: 0, Early: 0, Misses: 0
f84-> Hits: 53, Late: 0, Early: 0, Misses: 0
f85-> Hits: 8705, Late: 0, Early: 0, Misses: 50
f86-> Hits: 25866, Late: 138, Early: 0, Misses: 0
f87-> Hits: 1550, Late: 0, Early: 0, Misses: 0
f88-> Hits: 6, Late: 1, Early: 0, Misses: 0
f89-> Hits: 1373, Late: 715, Early: 0, Misses: 1
f8a-> Hits: 0, Late: 1, Early: 0, Misses: 0
f8b-> Hits: 2, Late: 0, Early: 0, Misses: 0
f8c-> Hits: 116, Late: 0, Early: 0, Misses: 0
f8d-> Hits: 137, Late: 30, Early: 0, Misses: 50
f8e-> Hits: 8735, Late: 1, Early: 0, Misses: 0
f8f-> Hits: 3, Late: 0, Early: 0, Misses: 0
f90-> Hits: 6, Late: 1, Early: 0, Misses: 1
f91-> Hits: 1622, Late: 1, Early: 0, Misses: 0
f92-> Hits: 62, Late: 1, Early: 0, Misses: 0
f93-> Hits: 8695, Late: 0, Early: 0, Misses: 0
f94-> Hits: 2122, Late: 194, Early: 0, Misses: 9
f95-> Hits: 29836, Late: 171, Early: 0, Misses: 0
f96-> Hits: 1, Late: 0, Early: 0, Misses: 0
f97-> Hits: 26505, Late: 6, Early: 0, Misses: 571
f98-> Hits: 1638, Late: 176, Early: 0, Misses: 0
f99-> Hits: 3, Late: 0, Early: 0, Misses: 0
f9a-> Hits: 28355, Late: 6, Early: 0, Misses: 0
f9b-> Hits: 1384, Late: 584, Early: 0, Misses: 0
f9c-> Hits: 27572, Late: 220, Early: 0, Misses: 0
f9d-> Hits: 16, Late: 1, Early: 0, Misses: 0
f9e-> Hits: 1939, Late: 16, Early: 0, Misses: 0
f9f-> Hits: 3047, Late: 0, Early: 0, Misses: 0
fa0-> Hits: 1511, Late: 3, Early: 0, Misses: 0
fa3-> Hits: 1, Late: 0, Early: 0, Misses: 0
fa4-> Hits: 51, Late: 1, Early: 0, Misses: 0
fa5-> Hits: 0, Late: 1, Early: 0, Misses: 0
fa7-> Hits: 28110, Late: 3, Early: 0, Misses: 117
fa8-> Hits: 3134, Late: 0, Early: 0, Misses: 60
fa9-> Hits: 892, Late: 0, Early: 0, Misses: 0
faa-> Hits: 27882, Late: 10, Early: 0, Misses: 365
fac-> Hits: 27589, Late: 120, Early: 0, Misses: 0
fad-> Hits: 3, Late: 0, Early: 0, Misses: 0
fae-> Hits: 62, Late: 1, Early: 0, Misses: 0
faf-> Hits: 27181, Late: 153, Early: 0, Misses: 0
fb0-> Hits: 34, Late: 3, Early: 0, Misses: 85
fb1-> Hits: 3820, Late: 0, Early: 0, Misses: 0
fb2-> Hits: 4472, Late: 536, Early: 0, Misses: 0
fb3-> Hits: 1947, Late: 292, Early: 0, Misses: 0
fb4-> Hits: 117, Late: 0, Early: 0, Misses: 0
fb5-> Hits: 0, Late: 1, Early: 0, Misses: 0
fb6-> Hits: 5, Late: 1, Early: 0, Misses: 0
fb7-> Hits: 10604, Late: 0, Early: 0, Misses: 0
fb8-> Hits: 13, Late: 0, Early: 0, Misses: 0
fb9-> Hits: 4585, Late: 101, Early: 0, Misses: 0
fba-> Hits: 0, Late: 1, Early: 0, Misses: 0
fbb-> Hits: 97, Late: 1, Early: 0, Misses: 0
fbc-> Hits: 1, Late: 0, Early: 0, Misses: 0
fbd-> Hits: 0, Late: 1, Early: 0, Misses: 0
fbe-> Hits: 157, Late: 0, Early: 0, Misses: 0
fbf-> Hits: 24820, Late: 41, Early: 0, Misses: 0
fc0-> Hits: 1476, Late: 5, Early: 0, Misses: 1
fc1-> Hits: 253, Late: 0, Early: 0, Misses: 0
fc2-> Hits: 4, Late: 0, Early: 0, Misses: 0
fc6-> Hits: 1565, Late: 0, Early: 0, Misses: 1
fc7-> Hits: 27713, Late: 210, Early: 0, Misses: 0
fc8-> Hits: 4698, Late: 1, Early: 0, Misses: 0
fc9-> Hits: 257, Late: 0, Early: 0, Misses: 0
fcb-> Hits: 3012, Late: 1, Early: 0, Misses: 0
fcc-> Hits: 4, Late: 0, Early: 0, Misses: 0
fcd-> Hits: 1621, Late: 0, Early: 0, Misses: 0
fce-> Hits: 26, Late: 0, Early: 0, Misses: 0
fcf-> Hits: 2, Late: 0, Early: 0, Misses: 0
fd0-> Hits: 3260, Late: 227, Early: 0, Misses: 116
fd1-> Hits: 2, Late: 0, Early: 0, Misses: 0
fd2-> Hits: 84, Late: 0, Early: 0, Misses: 0
fd4-> Hits: 390, Late: 15, Early: 0, Misses: 0
fd5-> Hits: 1, Late: 0, Early: 0, Misses: 0
fd6-> Hits: 17, Late: 0, Early: 0, Misses: 0
fd8-> Hits: 3, Late: 1, Early: 0, Misses: 0
fd9-> Hits: 22219, Late: 1, Early: 0, Misses: 0
fda-> Hits: 1608, Late: 1, Early: 0, Misses: 5
fdb-> Hits: 1610, Late: 2, Early: 0, Misses: 0
fdc-> Hits: 1, Late: 0, Early: 0, Misses: 0
fdd-> Hits: 3060, Late: 0, Early: 0, Misses: 0
fde-> Hits: 10137, Late: 0, Early: 0, Misses: 0
fdf-> Hits: 3132, Late: 0, Early: 0, Misses: 0
fe0-> Hits: 9190, Late: 2326, Early: 0, Misses: 0
fe1-> Hits: 1, Late: 1, Early: 0, Misses: 0
fe3-> Hits: 1618, Late: 0, Early: 0, Misses: 0
fe4-> Hits: 283, Late: 35, Early: 0, Misses: 0
fe5-> Hits: 4, Late: 0, Early: 0, Misses: 0
fe6-> Hits: 1484, Late: 0, Early: 0, Misses: 116
fe7-> Hits: 118, Late: 0, Early: 0, Misses: 0
fe8-> Hits: 1996, Late: 49, Early: 0, Misses: 0
fe9-> Hits: 2155, Late: 1, Early: 0, Misses: 0
fea-> Hits: 6216, Late: 15, Early: 0, Misses: 0
feb-> Hits: 123, Late: 8, Early: 0, Misses: 0
fec-> Hits: 179, Late: 0, Early: 0, Misses: 0
fed-> Hits: 123, Late: 30, Early: 0, Misses: 0
fee-> Hits: 73, Late: 0, Early: 0, Misses: 0
fef-> Hits: 116, Late: 2, Early: 0, Misses: 0
ff0-> Hits: 284, Late: 3, Early: 0, Misses: 0
ff1-> Hits: 4, Late: 0, Early: 0, Misses: 0
ff2-> Hits: 1976, Late: 6, Early: 0, Misses: 3
ff3-> Hits: 5509, Late: 873, Early: 0, Misses: 0
ff4-> Hits: 128, Late: 0, Early: 0, Misses: 0
ff5-> Hits: 13, Late: 1, Early: 0, Misses: 0
ff6-> Hits: 0, Late: 1, Early: 0, Misses: 0
ff7-> Hits: 2, Late: 0, Early: 0, Misses: 0
ff8-> Hits: 259, Late: 0, Early: 0, Misses: 0
ff9-> Hits: 13, Late: 0, Early: 0, Misses: 0
ffa-> Hits: 118, Late: 0, Early: 0, Misses: 0
ffb-> Hits: 37, Late: 1, Early: 0, Misses: 0
ffc-> Hits: 216, Late: 0, Early: 0, Misses: 0
ffd-> Hits: 14, Late: 2, Early: 0, Misses: 0
ffe-> Hits: 1775, Late: 0, Early: 0, Misses: 0
Total misses (from ip) 521561
Total accesses (misses) 23829718 521561
Pref: Addr 0 IP 0 Current 0
 All Calls: 2429974
 Critical Calls: 2429974
------------------
Depth Distribution
------------------
depth 0: 0
depth 1: 2358692
depth 2: 1489994
depth 3: 1267018
depth 4: 1097604
depth 5: 933186
depth 6: 759287
depth 7: 543593
depth 8: 341924
depth 9: 192602
depth 10: 81987
depth 11: 40506
depth 12: 19096
depth 13: 4338
depth 14: 4
depth 15: 5
depth 16: 0
depth 17: 0
depth 18: 0
depth 19: 0
depth 20: 0
depth 21: 0
depth 22: 0
depth 23: 0
depth 24: 0
depth 25: 0
depth 26: 0
depth 27: 0
depth 28: 0
depth 29: 0
Total: 9129836
-----------------------------
-----------------------------
	Captured at Filter
-----------------------------
depth 0: 0
depth 1: 73361
depth 2: 60012
depth 3: 54168
depth 4: 48451
depth 5: 43165
depth 6: 36592
depth 7: 27714
depth 8: 18729
depth 9: 10278
depth 10: 3546
depth 11: 1523
depth 12: 760
depth 13: 137
depth 14: 1
depth 15: 0
depth 16: 0
depth 17: 0
depth 18: 0
depth 19: 0
depth 20: 0
depth 21: 0
depth 22: 0
depth 23: 0
depth 24: 0
depth 25: 0
depth 26: 0
depth 27: 0
depth 28: 0
depth 29: 0
-----------------------------
-----------------------------
		Lost at Page
-----------------------------
depth 0: 0
depth 1: 60123
depth 2: 63054
depth 3: 79658
depth 4: 94632
depth 5: 105910
depth 6: 109967
depth 7: 99893
depth 8: 79582
depth 9: 52992
depth 10: 24004
depth 11: 12954
depth 12: 6677
depth 13: 1826
depth 14: 5
depth 15: 5
depth 16: 0
depth 17: 0
depth 18: 0
depth 19: 0
depth 20: 0
depth 21: 0
depth 22: 0
depth 23: 0
depth 24: 0
depth 25: 0
depth 26: 0
depth 27: 0
depth 28: 0
depth 29: 0
-----------------------------
-----------------------------
	Lost due to PQ Size
-----------------------------
1071558
-----------------------------
ST read accesses: 1509288
ST write accesses: 26508
PT read accesses: 38576851
PT write accesses: 2251340
FILTER read accesses: 8482593
FILTER write accesses: 2223355
GHR read accesses: 2282113
GHR write accesses: 374346
GHR counter read accesses: 32682528
GHR counter write accesses: 2446157
ST tag read accesses: 604955103
ST tag write accesses: 23940546

DRAM Statistics
 CHANNEL 0
 RQ ROW_BUFFER_HIT:     364355  ROW_BUFFER_MISS:     921641
 DBUS_CONGESTED:        864
 WQ ROW_BUFFER_HIT:      81708  ROW_BUFFER_MISS:     312325  FULL:       1434

 AVG_CONGESTED_CYCLE: 4
 All warmup complete: 2
Channel 0 Bank busy for read cycles: 0
Channel 0 Bank busy for write cycles: 0
Channel 0
Rank 0
0banks busy for read cycles: 15670630
0banks busy for write cycles: 16541
1banks busy for read cycles: 7595657
1banks busy for write cycles: 2226089
2banks busy for read cycles: 6323622
2banks busy for write cycles: 1151709
3banks busy for read cycles: 4878931
3banks busy for write cycles: 733609
4banks busy for read cycles: 4317316
4banks busy for write cycles: 522357
5banks busy for read cycles: 4079418
5banks busy for write cycles: 417291
6banks busy for read cycles: 3889251
6banks busy for write cycles: 393245
7banks busy for read cycles: 3773086
7banks busy for write cycles: 927763
8banks busy for read cycles: 5223346
8banks busy for write cycles: 6727322

CPU 0 Branch Prediction Accuracy: 94.351% MPKI: 2.76314 Average ROB Occupancy at Mispredict: 53.1585
Branch types
NOT_BRANCH: 47553996 95.108%
BRANCH_DIRECT_JUMP: 3916 0.007832%
BRANCH_INDIRECT: 0 0%
BRANCH_CONDITIONAL: 2424087 4.84817%
BRANCH_DIRECT_CALL: 8847 0.017694%
BRANCH_INDIRECT_CALL: 0 0%
BRANCH_RETURN: 8845 0.01769%
BRANCH_OTHER: 0 0%

DRAM PAGES: 1048576
Allocated PAGES: 7750
