Initialize SIGNATURE TABLE
ST_SET: 1
ST_WAY: 256
ST_TAG_BIT: 16
ST_TAG_MASK: ffff

Initialize PATTERN TABLE
PT_SET: 512
PT_WAY: 4
SIG_DELTA_BIT: 7
C_SIG_BIT: 4
C_DELTA_BIT: 4

Initialize PREFETCH FILTER
FILTER_SET: 1024

*** ChampSim Multicore Out-of-Order Simulator ***

Warmup Instructions: 50000000
Simulation Instructions: 50000000
Number of CPUs: 1
LLC sets: 2048
LLC ways: 16
Off-chip DRAM Size: 4096 MB Channels: 1 Width: 64-bit Data Rate: 6400 MT/s
CPU 0 runs ./tracer/traces/607.cactuBSSN_s-4004B.champsimtrace.xz
.xz
CPU 0 Bimodal branch predictor
BTB has LRU replacement policy
ITLB has LRU replacement policy
DTLB has LRU replacement policy
STLB has LRU replacement policy
L1I has LRU replacement policy
CPU 0 L1D Berti prefetcher
L1D has LRU replacement policy
ST_WAYS: 256
PT_SETS: 512
L2C has LRU replacement policy
Initialize SRRIP state
Heartbeat CPU 0 instructions: 10000001 cycles: 3591543 heartbeat IPC: 2.78432 cumulative IPC: 2.78432 (Simulation time: 0 hr 1 min 45 sec) 
Heartbeat CPU 0 instructions: 20000002 cycles: 7184050 heartbeat IPC: 2.78357 cumulative IPC: 2.78395 (Simulation time: 0 hr 2 min 58 sec) 
Heartbeat CPU 0 instructions: 30000003 cycles: 10775252 heartbeat IPC: 2.78458 cumulative IPC: 2.78416 (Simulation time: 0 hr 4 min 8 sec) 
Heartbeat CPU 0 instructions: 40000000 cycles: 14368550 heartbeat IPC: 2.78296 cumulative IPC: 2.78386 (Simulation time: 0 hr 5 min 19 sec) 
Heartbeat CPU 0 instructions: 50000002 cycles: 17959884 heartbeat IPC: 2.78448 cumulative IPC: 2.78398 (Simulation time: 0 hr 6 min 36 sec) 

Warmup complete CPU 0 instructions: 50000002 cycles: 17959884 (Simulation time: 0 hr 6 min 36 sec) 

Heartbeat CPU 0 instructions: 60000002 cycles: 29046508 heartbeat IPC: 0.901988 cumulative IPC: 0.901988 (Simulation time: 0 hr 8 min 7 sec) 
Heartbeat CPU 0 instructions: 70000003 cycles: 40165982 heartbeat IPC: 0.899323 cumulative IPC: 0.900654 (Simulation time: 0 hr 9 min 39 sec) 
Heartbeat CPU 0 instructions: 80000002 cycles: 51389073 heartbeat IPC: 0.89102 cumulative IPC: 0.897419 (Simulation time: 0 hr 11 min 16 sec) 
Heartbeat CPU 0 instructions: 90000003 cycles: 62492032 heartbeat IPC: 0.900661 cumulative IPC: 0.898228 (Simulation time: 0 hr 13 min 43 sec) 
Heartbeat CPU 0 instructions: 100000000 cycles: 73606270 heartbeat IPC: 0.899747 cumulative IPC: 0.898531 (Simulation time: 0 hr 15 min 32 sec) 
Finished CPU 0 instructions: 50000002 cycles: 55646389 cumulative IPC: 0.898531 (Simulation time: 0 hr 15 min 32 sec) 

ChampSim completed all CPUs

Region of Interest Statistics

CPU 0 cumulative IPC: 0.898531 instructions: 50000002 cycles: 55646389
ITLB TOTAL     ACCESS:    6979383  HIT:    6979383  MISS:          0  HIT %:        100  MISS %:          0   MPKI: 0
ITLB LOAD TRANSLATION ACCESS:    6979383  HIT:    6979383  MISS:          0  HIT %:        100  MISS %:          0   MPKI: 0
ITLB PREFETCH  REQUESTED:          0  ISSUED:          0  USEFUL:          0  USELESS:          0
ITLB USEFUL LOAD PREFETCHES:          0 PREFETCH ISSUED TO LOWER LEVEL:          0  ACCURACY: -nan
ITLB TIMELY PREFETCHES:          0 LATE PREFETCHES: 0 DROPPED PREFETCHES: 0
ITLB PREFETCHES SAME FILL-ORIGIN LEVEL: 0 DIFFERENT FILL-ORIGIN LEVEL: 0
ITLB AVERAGE MISS LATENCY: -nan cycles
ITLB RQ	ACCESS:    8476138	FORWARD:          0	MERGED:    1496756	TO_CACHE:    6979382

DTLB TOTAL     ACCESS:   14121378  HIT:   12187351  MISS:    1934027  HIT %:    86.3043  MISS %:    13.6957   MPKI: 38.6805
DTLB LOAD TRANSLATION ACCESS:   14121378  HIT:   12187351  MISS:    1934027  HIT %:    86.3043  MISS %:    13.6957   MPKI: 38.6805
DTLB PREFETCH  REQUESTED:          0  ISSUED:          0  USEFUL:          0  USELESS:          0
DTLB USEFUL LOAD PREFETCHES:          0 PREFETCH ISSUED TO LOWER LEVEL:          0  ACCURACY: -nan
DTLB TIMELY PREFETCHES:          0 LATE PREFETCHES: 0 DROPPED PREFETCHES: 0
DTLB PREFETCHES SAME FILL-ORIGIN LEVEL: 0 DIFFERENT FILL-ORIGIN LEVEL: 0
DTLB AVERAGE MISS LATENCY: 10.4485 cycles
DTLB RQ	ACCESS:   19782369	FORWARD:          0	MERGED:    5445977	TO_CACHE:   14336392

STLB TOTAL     ACCESS:    7722240  HIT:    7720046  MISS:       2194  HIT %:    99.9716  MISS %:  0.0284114   MPKI: 0.04388
STLB LOAD TRANSLATION ACCESS:    1934027  HIT:    1931833  MISS:       2194  HIT %:    99.8866  MISS %:   0.113442   MPKI: 0.04388
STLB TRANSLATION FROM L1D PREFETCHER ACCESS:    5788213  HIT:    5788213  MISS:          0  HIT %:        100  MISS %:          0   MPKI: 0
STLB PREFETCH  REQUESTED:          0  ISSUED:          0  USEFUL:          0  USELESS:          0
STLB USEFUL LOAD PREFETCHES:          0 PREFETCH ISSUED TO LOWER LEVEL:          0  ACCURACY: -nan
STLB TIMELY PREFETCHES:          0 LATE PREFETCHES: 0 DROPPED PREFETCHES: 0
STLB PREFETCHES SAME FILL-ORIGIN LEVEL: 0 DIFFERENT FILL-ORIGIN LEVEL: 0
STLB AVERAGE MISS LATENCY: 852.127 cycles
STLB RQ	ACCESS:   12809785	FORWARD:          0	MERGED:    5087546	TO_CACHE:    7722239

STLB Hit, L1D data hit: 0
STLB Hit, L2C data hit: 0
STLB Hit, LLC data hit: 0
STLB Hit, LLC data miss: 0
STLB STLB hints to L2: 0
L1D TOTAL     ACCESS:   30348066  HIT:   25904768  MISS:    4443298  HIT %:    85.3589  MISS %:    14.6411   MPKI: 88.866
L1D LOAD      ACCESS:   15673174  HIT:   12478612  MISS:    3194562  HIT %:    79.6176  MISS %:    20.3824   MPKI: 63.8912
L1D RFO       ACCESS:    4008078  HIT:    3711335  MISS:     296743  HIT %:    92.5964  MISS %:    7.40362   MPKI: 5.93486
L1D PREFETCH  ACCESS:   10666814  HIT:    9714821  MISS:     951993  HIT %:    91.0752  MISS %:    8.92481   MPKI: 19.0399
AGUS PREFETCH L1 MISS: 0
L1D PREFETCH  REQUESTED:   22403279  ISSUED:   22403279  USEFUL:     421160  USELESS:     530821
L1D USEFUL LOAD PREFETCHES:     421160 PREFETCH ISSUED TO LOWER LEVEL:    1073259  ACCURACY: 39.2412
L1D TIMELY PREFETCHES:     421160 LATE PREFETCHES: 68463 DROPPED PREFETCHES: 0
L1D PREFETCHES SAME FILL-ORIGIN LEVEL: 1073259 DIFFERENT FILL-ORIGIN LEVEL: 0
L1D AVERAGE MISS LATENCY: 705603 cycles
L1D RQ	ACCESS:   19464311	FORWARD:          0	MERGED:    3697578	TO_CACHE:   15756655
L1D WQ	ACCESS:    4052977	FORWARD:      35153	MERGED:      27263	TO_CACHE:    4025714
L1D PQ	ACCESS:   11527521	FORWARD:          0	MERGED:     626688	TO_CACHE:   10875758

L1D UNIQUE REGIONS ACCESSED: 0
L1D REGIONS CONFLICTS: 0
L1D Cross Page Prefetch Requests: 0
L1D Same Page Prefetch Requests: 21644472
L1D ROI Sum of L1D PQ occupancy: 137722199
L1D PREFETCHES PUSHED FROM L2C: 0
L1I TOTAL     ACCESS:    7814597  HIT:    6514594  MISS:    1300003  HIT %:    83.3644  MISS %:    16.6356   MPKI: 26.0001
L1I LOAD      ACCESS:    7814597  HIT:    6514594  MISS:    1300003  HIT %:    83.3644  MISS %:    16.6356   MPKI: 26.0001
L1I PREFETCH  REQUESTED:          0  ISSUED:          0  USEFUL:          0  USELESS:          0
L1I USEFUL LOAD PREFETCHES:          0 PREFETCH ISSUED TO LOWER LEVEL:          0  ACCURACY: -nan
L1I TIMELY PREFETCHES:          0 LATE PREFETCHES: 0 DROPPED PREFETCHES: 0
L1I PREFETCHES SAME FILL-ORIGIN LEVEL: 0 DIFFERENT FILL-ORIGIN LEVEL: 0
L1I AVERAGE MISS LATENCY: 14.0636 cycles
L1I RQ	ACCESS:   11903359	FORWARD:          0	MERGED:    3427221	TO_CACHE:    8476138

BTB TOTAL     ACCESS:     281772  HIT:     263571  MISS:      18201  HIT %:    93.5405  MISS %:    6.45948   MPKI: 0.36402
BTB BRANCH_DIRECT_JUMP	ACCESS:      54526  HIT:      54521  MISS:          5
BTB BRANCH_INDIRECT	ACCESS:       9087  HIT:       9086  MISS:          1
BTB BRANCH_CONDITIONAL	ACCESS:     109107  HIT:     109095  MISS:         12
BTB BRANCH_DIRECT_CALL	ACCESS:      54526  HIT:      54521  MISS:          5
BTB BRANCH_INDIRECT_CALL	ACCESS:          0  HIT:          0  MISS:          0
BTB BRANCH_RETURN	ACCESS:      54526  HIT:      36348  MISS:      18178
BTB BRANCH_OTHER ACCESS:           0  HIT:          0  MISS:          0

L2C TOTAL     ACCESS:    7992422  HIT:    7639127  MISS:     353295  HIT %:    95.5796  MISS %:    4.42037   MPKI: 7.0659
L2C LOAD      ACCESS:    4425724  HIT:    4239263  MISS:     186461  HIT %:    95.7869  MISS %:    4.21312   MPKI: 3.72922
L2C DATA LOAD MPKI: 3.72184
L2C INSTRUCTION LOAD MPKI: 0.00738
L2C RFO       ACCESS:     296542  HIT:     267114  MISS:      29428  HIT %:    90.0763  MISS %:    9.92372   MPKI: 0.58856
L2C PREFETCH  ACCESS:    2932007  HIT:    2797757  MISS:     134250  HIT %:    95.4212  MISS %:    4.57877   MPKI: 2.685
AGUS PREFETCH L1 MISS: 0
L2C DATA PREFETCH MPKI: 2.685
L2C INSTRUCTION PREFETCH MPKI: 0
L2C WRITEBACK ACCESS:     334882  HIT:     334790  MISS:         92  HIT %:    99.9725  MISS %:  0.0274724   MPKI: 0.00184
L2C LOAD TRANSLATION ACCESS:       3267  HIT:        203  MISS:       3064  HIT %:    6.21365  MISS %:    93.7863   MPKI: 0.06128
L2C PREFETCH  REQUESTED:    2649092  ISSUED:    2600541  USEFUL:      91504  USELESS:      42636
L2C USEFUL LOAD PREFETCHES:      91504 PREFETCH ISSUED TO LOWER LEVEL:     502799  ACCURACY: 18.1989
L2C TIMELY PREFETCHES:      91504 LATE PREFETCHES: 1 DROPPED PREFETCHES: 0
L2C PREFETCHES SAME FILL-ORIGIN LEVEL: 10755 DIFFERENT FILL-ORIGIN LEVEL: 368548
L2C AVERAGE MISS LATENCY: 121.467 cycles
L2C RQ	ACCESS:    4726048	FORWARD:          0	MERGED:          0	TO_CACHE:    4725533
L2C WQ	ACCESS:     334882	FORWARD:        988	MERGED:          0	TO_CACHE:     334882
L2C PQ	ACCESS:    3621061	FORWARD:          0	MERGED:     295559	TO_CACHE:    3325029

L2C Instructions Evicting Data 358
L2C Translations Evicting Data 3049
L2C Data Evicting Data 346335
L2C Instructions Evicting Instructions 11
L2C Translations Evicting Instructions 1
L2C Data Evicting Instructions 353
L2C Instructions Evicting Translations 0
L2C Translations Evicting Translations 14
L2C Data Evicting Translations 3082
L2C Dense regions hint from L2: 0
PSCL5 TOTAL     ACCESS:       2194  HIT:       2194  MISS:          0  HIT %:        100  MISS %:          0   MPKI: 0
PSCL5 LOAD TRANSLATION ACCESS:       2194  HIT:       2194  MISS:          0  HIT %:        100  MISS %:          0   MPKI: 0
PSCL5 PREFETCH  REQUESTED:          0  ISSUED:          0  USEFUL:          0  USELESS:          0
PSCL5 USEFUL LOAD PREFETCHES:          0 PREFETCH ISSUED TO LOWER LEVEL:          0  ACCURACY: -nan
PSCL5 TIMELY PREFETCHES:          0 LATE PREFETCHES: 0 DROPPED PREFETCHES: 0
PSCL5 PREFETCHES SAME FILL-ORIGIN LEVEL: 0 DIFFERENT FILL-ORIGIN LEVEL: 0

PSCL4 TOTAL     ACCESS:       2194  HIT:       2194  MISS:          0  HIT %:        100  MISS %:          0   MPKI: 0
PSCL4 LOAD TRANSLATION ACCESS:       2194  HIT:       2194  MISS:          0  HIT %:        100  MISS %:          0   MPKI: 0
PSCL4 PREFETCH  REQUESTED:          0  ISSUED:          0  USEFUL:          0  USELESS:          0
PSCL4 USEFUL LOAD PREFETCHES:          0 PREFETCH ISSUED TO LOWER LEVEL:          0  ACCURACY: -nan
PSCL4 TIMELY PREFETCHES:          0 LATE PREFETCHES: 0 DROPPED PREFETCHES: 0
PSCL4 PREFETCHES SAME FILL-ORIGIN LEVEL: 0 DIFFERENT FILL-ORIGIN LEVEL: 0

PSCL3 TOTAL     ACCESS:       2194  HIT:       2194  MISS:          0  HIT %:        100  MISS %:          0   MPKI: 0
PSCL3 LOAD TRANSLATION ACCESS:       2194  HIT:       2194  MISS:          0  HIT %:        100  MISS %:          0   MPKI: 0
PSCL3 PREFETCH  REQUESTED:          0  ISSUED:          0  USEFUL:          0  USELESS:          0
PSCL3 USEFUL LOAD PREFETCHES:          0 PREFETCH ISSUED TO LOWER LEVEL:          0  ACCURACY: -nan
PSCL3 TIMELY PREFETCHES:          0 LATE PREFETCHES: 0 DROPPED PREFETCHES: 0
PSCL3 PREFETCHES SAME FILL-ORIGIN LEVEL: 0 DIFFERENT FILL-ORIGIN LEVEL: 0

PSCL2 TOTAL     ACCESS:       2194  HIT:       1117  MISS:       1077  HIT %:    50.9116  MISS %:    49.0884   MPKI: 0.02154
PSCL2 LOAD TRANSLATION ACCESS:       2194  HIT:       1117  MISS:       1077  HIT %:    50.9116  MISS %:    49.0884   MPKI: 0.02154
PSCL2 PREFETCH  REQUESTED:          0  ISSUED:          0  USEFUL:          0  USELESS:          0
PSCL2 USEFUL LOAD PREFETCHES:          0 PREFETCH ISSUED TO LOWER LEVEL:          0  ACCURACY: -nan
PSCL2 TIMELY PREFETCHES:          0 LATE PREFETCHES: 0 DROPPED PREFETCHES: 0
PSCL2 PREFETCHES SAME FILL-ORIGIN LEVEL: 0 DIFFERENT FILL-ORIGIN LEVEL: 0

LLC TOTAL     ACCESS:     742654  HIT:     520646  MISS:     222008  HIT %:    70.1061  MISS %:    29.8939   MPKI: 4.44016
LLC LOAD      ACCESS:     186460  HIT:     152224  MISS:      34236  HIT %:     81.639  MISS %:     18.361   MPKI: 0.68472
LLC RFO       ACCESS:      29427  HIT:          2  MISS:      29425  HIT %: 0.00679648  MISS %:    99.9932   MPKI: 0.5885
LLC PREFETCH  ACCESS:     494077  HIT:     360597  MISS:     133480  HIT %:     72.984  MISS %:     27.016   MPKI: 2.6696
AGUS PREFETCH L1 MISS: 0
LLC WRITEBACK ACCESS:      29626  HIT:       5720  MISS:      23906  HIT %:    19.3074  MISS %:    80.6926   MPKI: 0.47812
LLC LOAD TRANSLATION ACCESS:       3064  HIT:       2103  MISS:        961  HIT %:    68.6358  MISS %:    31.3642   MPKI: 0.01922
LLC PREFETCH  REQUESTED:          0  ISSUED:          0  USEFUL:      99336  USELESS:      33076
LLC USEFUL LOAD PREFETCHES:      99336 PREFETCH ISSUED TO LOWER LEVEL:     136525  ACCURACY: 72.7603
LLC TIMELY PREFETCHES:      99336 LATE PREFETCHES: 3045 DROPPED PREFETCHES: 0
LLC PREFETCHES SAME FILL-ORIGIN LEVEL: 101319 DIFFERENT FILL-ORIGIN LEVEL: 0
LLC AVERAGE MISS LATENCY: 232.385 cycles
LLC RQ	ACCESS:     218952	FORWARD:          0	MERGED:          0	TO_CACHE:     218951
LLC WQ	ACCESS:      29626	FORWARD:          1	MERGED:          0	TO_CACHE:      29626
LLC PQ	ACCESS:     502799	FORWARD:          0	MERGED:       4049	TO_CACHE:     498750

LLC Dense regions hint to LLC: 0

RAW hits: 128425
Loads Generated: 19592737
Loads sent to L1D: 19464311
Stores Generated: 4053119
Stores sent to L1D: 4053121
Major fault: 0 Minor fault: 4534
Allocated PAGES: 4534
CPU 0 L1D berti prefetcher final stats
3-> Hits: 6749, Late: 11426, Early: 0, Misses: 0
6-> Hits: 1032, Late: 17142, Early: 0, Misses: 0
7-> Hits: 18175, Late: 0, Early: 0, Misses: 0
8-> Hits: 27188, Late: 2460, Early: 0, Misses: 0
e-> Hits: 18174, Late: 0, Early: 0, Misses: 0
12-> Hits: 18175, Late: 0, Early: 0, Misses: 0
17-> Hits: 18174, Late: 0, Early: 0, Misses: 0
18-> Hits: 29639, Late: 0, Early: 0, Misses: 0
19-> Hits: 8578, Late: 0, Early: 0, Misses: 0
1a-> Hits: 5469, Late: 12706, Early: 0, Misses: 0
1e-> Hits: 7633, Late: 3630, Early: 0, Misses: 0
20-> Hits: 23828, Late: 0, Early: 0, Misses: 0
21-> Hits: 31748, Late: 0, Early: 0, Misses: 0
22-> Hits: 18175, Late: 0, Early: 0, Misses: 0
25-> Hits: 5555, Late: 2580, Early: 0, Misses: 0
26-> Hits: 2266, Late: 2226, Early: 0, Misses: 2301
2a-> Hits: 17352, Late: 0, Early: 0, Misses: 0
2b-> Hits: 11928, Late: 0, Early: 0, Misses: 0
30-> Hits: 305, Late: 0, Early: 0, Misses: 0
31-> Hits: 18175, Late: 0, Early: 0, Misses: 0
33-> Hits: 18175, Late: 0, Early: 0, Misses: 0
34-> Hits: 17711, Late: 0, Early: 0, Misses: 0
37-> Hits: 14201, Late: 2652, Early: 0, Misses: 0
38-> Hits: 55, Late: 0, Early: 0, Misses: 0
3a-> Hits: 12695, Late: 1, Early: 0, Misses: 5478
3c-> Hits: 12608, Late: 2411, Early: 0, Misses: 0
3e-> Hits: 4341, Late: 0, Early: 0, Misses: 0
40-> Hits: 44705, Late: 0, Early: 0, Misses: 0
42-> Hits: 11481, Late: 2085, Early: 0, Misses: 0
46-> Hits: 10753, Late: 1163, Early: 0, Misses: 0
47-> Hits: 14961, Late: 0, Early: 0, Misses: 0
48-> Hits: 829, Late: 0, Early: 0, Misses: 0
49-> Hits: 17970, Late: 0, Early: 0, Misses: 0
4b-> Hits: 10536, Late: 0, Early: 0, Misses: 0
4c-> Hits: 712, Late: 17463, Early: 0, Misses: 0
4d-> Hits: 18175, Late: 0, Early: 0, Misses: 0
50-> Hits: 14116, Late: 0, Early: 0, Misses: 0
51-> Hits: 33706, Late: 2, Early: 0, Misses: 207
53-> Hits: 3265, Late: 14910, Early: 0, Misses: 0
58-> Hits: 26116, Late: 0, Early: 0, Misses: 0
59-> Hits: 8736, Late: 27607, Early: 0, Misses: 0
5a-> Hits: 18175, Late: 0, Early: 0, Misses: 0
5c-> Hits: 10821, Late: 0, Early: 0, Misses: 0
5d-> Hits: 5307, Late: 12868, Early: 0, Misses: 0
60-> Hits: 4472, Late: 1501, Early: 0, Misses: 0
62-> Hits: 36097, Late: 0, Early: 0, Misses: 0
66-> Hits: 16295, Late: 0, Early: 0, Misses: 0
67-> Hits: 26261, Late: 2123, Early: 0, Misses: 0
68-> Hits: 18174, Late: 0, Early: 0, Misses: 0
69-> Hits: 18175, Late: 0, Early: 0, Misses: 0
6b-> Hits: 7917, Late: 10258, Early: 0, Misses: 0
6c-> Hits: 13466, Late: 751, Early: 0, Misses: 0
6e-> Hits: 0, Late: 18174, Early: 0, Misses: 0
6f-> Hits: 17919, Late: 0, Early: 0, Misses: 0
70-> Hits: 20280, Late: 0, Early: 0, Misses: 0
72-> Hits: 2219, Late: 0, Early: 0, Misses: 0
73-> Hits: 982, Late: 0, Early: 0, Misses: 0
75-> Hits: 8569, Late: 3971, Early: 0, Misses: 0
77-> Hits: 1704, Late: 16471, Early: 0, Misses: 0
78-> Hits: 36295, Late: 0, Early: 0, Misses: 0
7b-> Hits: 12662, Late: 0, Early: 0, Misses: 82
7c-> Hits: 224, Late: 0, Early: 0, Misses: 0
7e-> Hits: 8881, Late: 0, Early: 0, Misses: 0
81-> Hits: 6177, Late: 11998, Early: 0, Misses: 0
82-> Hits: 36249, Late: 0, Early: 0, Misses: 0
83-> Hits: 22999, Late: 13275, Early: 0, Misses: 0
84-> Hits: 18175, Late: 0, Early: 0, Misses: 0
86-> Hits: 1012, Late: 17163, Early: 0, Misses: 0
87-> Hits: 18175, Late: 0, Early: 0, Misses: 0
8a-> Hits: 20550, Late: 2334, Early: 0, Misses: 0
8b-> Hits: 12672, Late: 2729, Early: 0, Misses: 0
8c-> Hits: 17650, Late: 0, Early: 0, Misses: 0
90-> Hits: 12961, Late: 0, Early: 0, Misses: 0
91-> Hits: 14559, Late: 0, Early: 0, Misses: 84
94-> Hits: 18175, Late: 0, Early: 0, Misses: 0
96-> Hits: 31441, Late: 2037, Early: 0, Misses: 0
9b-> Hits: 36016, Late: 0, Early: 0, Misses: 333
9e-> Hits: 4168, Late: 0, Early: 0, Misses: 0
a0-> Hits: 18174, Late: 0, Early: 0, Misses: 0
a1-> Hits: 23262, Late: 0, Early: 0, Misses: 0
a5-> Hits: 17524, Late: 0, Early: 0, Misses: 0
a6-> Hits: 5860, Late: 30490, Early: 0, Misses: 0
a9-> Hits: 30476, Late: 0, Early: 0, Misses: 398
aa-> Hits: 11197, Late: 0, Early: 0, Misses: 0
ab-> Hits: 15204, Late: 5032, Early: 0, Misses: 0
ac-> Hits: 18175, Late: 0, Early: 0, Misses: 0
b1-> Hits: 9585, Late: 20994, Early: 0, Misses: 0
b2-> Hits: 18175, Late: 0, Early: 0, Misses: 0
b5-> Hits: 14964, Late: 0, Early: 0, Misses: 0
b6-> Hits: 20339, Late: 0, Early: 0, Misses: 0
b7-> Hits: 10439, Late: 4381, Early: 0, Misses: 0
b9-> Hits: 14909, Late: 1531, Early: 0, Misses: 0
bb-> Hits: 6236, Late: 11939, Early: 0, Misses: 0
bc-> Hits: 17916, Late: 0, Early: 0, Misses: 0
bf-> Hits: 12644, Late: 5531, Early: 0, Misses: 0
c0-> Hits: 11782, Late: 2947, Early: 0, Misses: 0
c1-> Hits: 9140, Late: 0, Early: 0, Misses: 0
c6-> Hits: 18175, Late: 0, Early: 0, Misses: 0
c9-> Hits: 22045, Late: 13907, Early: 0, Misses: 397
ca-> Hits: 9360, Late: 0, Early: 0, Misses: 0
cb-> Hits: 18175, Late: 0, Early: 0, Misses: 0
ce-> Hits: 13498, Late: 923, Early: 0, Misses: 0
cf-> Hits: 16080, Late: 13439, Early: 0, Misses: 0
d1-> Hits: 18175, Late: 0, Early: 0, Misses: 0
d3-> Hits: 11530, Late: 2233, Early: 0, Misses: 0
d4-> Hits: 25125, Late: 3175, Early: 0, Misses: 0
d5-> Hits: 18175, Late: 0, Early: 0, Misses: 0
d9-> Hits: 18175, Late: 0, Early: 0, Misses: 0
da-> Hits: 25202, Late: 0, Early: 0, Misses: 119
df-> Hits: 8820, Late: 0, Early: 0, Misses: 0
e1-> Hits: 22476, Late: 13873, Early: 0, Misses: 0
e2-> Hits: 31939, Late: 2293, Early: 0, Misses: 0
e6-> Hits: 18175, Late: 0, Early: 0, Misses: 0
e7-> Hits: 33486, Late: 12082, Early: 0, Misses: 0
ec-> Hits: 34490, Late: 5967, Early: 0, Misses: 0
f0-> Hits: 922, Late: 0, Early: 0, Misses: 10
f4-> Hits: 34181, Late: 2168, Early: 0, Misses: 0
f5-> Hits: 10898, Late: 922, Early: 0, Misses: 0
f7-> Hits: 18175, Late: 0, Early: 0, Misses: 0
f8-> Hits: 18175, Late: 0, Early: 0, Misses: 0
fa-> Hits: 1536, Late: 0, Early: 0, Misses: 11
fc-> Hits: 10896, Late: 0, Early: 0, Misses: 0
fe-> Hits: 21942, Late: 2486, Early: 0, Misses: 0
ff-> Hits: 17017, Late: 1, Early: 0, Misses: 1157
102-> Hits: 13064, Late: 1443, Early: 0, Misses: 0
105-> Hits: 26314, Late: 0, Early: 0, Misses: 0
107-> Hits: 20561, Late: 1727, Early: 0, Misses: 0
109-> Hits: 18175, Late: 0, Early: 0, Misses: 0
10a-> Hits: 18174, Late: 0, Early: 0, Misses: 0
10c-> Hits: 0, Late: 18011, Early: 0, Misses: 0
10d-> Hits: 8949, Late: 1013, Early: 0, Misses: 0
10e-> Hits: 30568, Late: 0, Early: 0, Misses: 0
112-> Hits: 17793, Late: 0, Early: 0, Misses: 0
114-> Hits: 18175, Late: 0, Early: 0, Misses: 0
117-> Hits: 17225, Late: 924, Early: 0, Misses: 0
11a-> Hits: 3603, Late: 32646, Early: 0, Misses: 0
11b-> Hits: 10326, Late: 0, Early: 0, Misses: 0
11e-> Hits: 16406, Late: 1768, Early: 0, Misses: 0
11f-> Hits: 4468, Late: 0, Early: 0, Misses: 0
120-> Hits: 14626, Late: 3548, Early: 0, Misses: 0
124-> Hits: 24671, Late: 11320, Early: 0, Misses: 0
128-> Hits: 36349, Late: 0, Early: 0, Misses: 0
129-> Hits: 17444, Late: 0, Early: 0, Misses: 0
12b-> Hits: 18175, Late: 0, Early: 0, Misses: 0
12d-> Hits: 27637, Late: 0, Early: 0, Misses: 0
12f-> Hits: 40, Late: 18135, Early: 0, Misses: 0
132-> Hits: 7557, Late: 10618, Early: 0, Misses: 0
134-> Hits: 6298, Late: 2708, Early: 0, Misses: 0
136-> Hits: 18384, Late: 0, Early: 0, Misses: 0
137-> Hits: 2888, Late: 0, Early: 0, Misses: 0
13a-> Hits: 31708, Late: 0, Early: 0, Misses: 161
13c-> Hits: 6768, Late: 1882, Early: 0, Misses: 0
13d-> Hits: 325, Late: 17850, Early: 0, Misses: 0
13e-> Hits: 2965, Late: 0, Early: 0, Misses: 0
141-> Hits: 18175, Late: 0, Early: 0, Misses: 0
142-> Hits: 102, Late: 18048, Early: 0, Misses: 0
143-> Hits: 33510, Late: 0, Early: 0, Misses: 0
145-> Hits: 4855, Late: 13320, Early: 0, Misses: 0
147-> Hits: 19423, Late: 1987, Early: 0, Misses: 0
14a-> Hits: 10089, Late: 3695, Early: 0, Misses: 0
14c-> Hits: 6628, Late: 1369, Early: 0, Misses: 0
14e-> Hits: 18175, Late: 0, Early: 0, Misses: 0
150-> Hits: 500, Late: 2286, Early: 0, Misses: 0
152-> Hits: 18175, Late: 0, Early: 0, Misses: 0
156-> Hits: 3879, Late: 0, Early: 0, Misses: 0
157-> Hits: 14287, Late: 2147, Early: 0, Misses: 0
15a-> Hits: 18689, Late: 0, Early: 0, Misses: 0
15d-> Hits: 4717, Late: 0, Early: 0, Misses: 0
15f-> Hits: 18175, Late: 0, Early: 0, Misses: 0
160-> Hits: 18175, Late: 0, Early: 0, Misses: 0
163-> Hits: 944, Late: 0, Early: 0, Misses: 0
165-> Hits: 5526, Late: 12649, Early: 0, Misses: 0
167-> Hits: 18175, Late: 0, Early: 0, Misses: 0
168-> Hits: 13540, Late: 4634, Early: 0, Misses: 0
169-> Hits: 18036, Late: 0, Early: 0, Misses: 117
16a-> Hits: 11129, Late: 2452, Early: 0, Misses: 0
16b-> Hits: 17916, Late: 0, Early: 0, Misses: 0
170-> Hits: 18174, Late: 0, Early: 0, Misses: 0
172-> Hits: 17528, Late: 0, Early: 0, Misses: 646
173-> Hits: 7248, Late: 2624, Early: 0, Misses: 0
175-> Hits: 23105, Late: 0, Early: 0, Misses: 0
178-> Hits: 42250, Late: 1521, Early: 0, Misses: 0
17a-> Hits: 5166, Late: 13009, Early: 0, Misses: 0
17b-> Hits: 18175, Late: 0, Early: 0, Misses: 0
17d-> Hits: 18175, Late: 0, Early: 0, Misses: 0
17e-> Hits: 106, Late: 0, Early: 0, Misses: 0
17f-> Hits: 26725, Late: 3075, Early: 0, Misses: 0
180-> Hits: 18226, Late: 0, Early: 0, Misses: 0
183-> Hits: 18075, Late: 0, Early: 0, Misses: 0
185-> Hits: 17586, Late: 0, Early: 0, Misses: 588
186-> Hits: 36164, Late: 0, Early: 0, Misses: 0
187-> Hits: 69, Late: 18106, Early: 0, Misses: 0
189-> Hits: 7236, Late: 0, Early: 0, Misses: 0
18d-> Hits: 34491, Late: 0, Early: 0, Misses: 0
18e-> Hits: 19127, Late: 12848, Early: 0, Misses: 0
18f-> Hits: 18175, Late: 0, Early: 0, Misses: 0
193-> Hits: 9081, Late: 2584, Early: 0, Misses: 0
194-> Hits: 12948, Late: 2243, Early: 0, Misses: 0
196-> Hits: 27620, Late: 0, Early: 0, Misses: 0
198-> Hits: 18175, Late: 0, Early: 0, Misses: 0
199-> Hits: 8166, Late: 1723, Early: 0, Misses: 0
19b-> Hits: 13355, Late: 2184, Early: 0, Misses: 0
19e-> Hits: 5309, Late: 12866, Early: 0, Misses: 0
19f-> Hits: 17846, Late: 0, Early: 0, Misses: 0
1a1-> Hits: 29429, Late: 0, Early: 0, Misses: 0
1a3-> Hits: 7196, Late: 3719, Early: 0, Misses: 0
1a5-> Hits: 18175, Late: 0, Early: 0, Misses: 0
1a7-> Hits: 6718, Late: 0, Early: 0, Misses: 0
1a8-> Hits: 12605, Late: 5570, Early: 0, Misses: 0
1ab-> Hits: 1409, Late: 41, Early: 0, Misses: 0
1b1-> Hits: 506, Late: 17618, Early: 0, Misses: 0
1b6-> Hits: 47199, Late: 0, Early: 0, Misses: 15
1b7-> Hits: 17867, Late: 0, Early: 0, Misses: 0
1b8-> Hits: 13375, Late: 269, Early: 0, Misses: 0
1b9-> Hits: 17812, Late: 0, Early: 0, Misses: 0
1bd-> Hits: 13609, Late: 4565, Early: 0, Misses: 0
1be-> Hits: 17893, Late: 0, Early: 0, Misses: 0
1c3-> Hits: 3, Late: 18172, Early: 0, Misses: 0
1c4-> Hits: 18175, Late: 0, Early: 0, Misses: 0
1c6-> Hits: 13782, Late: 1972, Early: 0, Misses: 0
1c8-> Hits: 12623, Late: 2323, Early: 0, Misses: 0
1ca-> Hits: 34786, Late: 3, Early: 0, Misses: 0
1cb-> Hits: 14171, Late: 2159, Early: 0, Misses: 0
1cc-> Hits: 9341, Late: 0, Early: 0, Misses: 0
1ce-> Hits: 18175, Late: 0, Early: 0, Misses: 0
1d0-> Hits: 6, Late: 18169, Early: 0, Misses: 0
1d3-> Hits: 18175, Late: 0, Early: 0, Misses: 0
1d7-> Hits: 104, Late: 0, Early: 0, Misses: 0
1da-> Hits: 16550, Late: 1562, Early: 0, Misses: 0
1db-> Hits: 18175, Late: 0, Early: 0, Misses: 0
1de-> Hits: 18175, Late: 0, Early: 0, Misses: 0
1e0-> Hits: 334, Late: 17841, Early: 0, Misses: 0
1e1-> Hits: 15940, Late: 2232, Early: 0, Misses: 0
1e4-> Hits: 14142, Late: 2255, Early: 0, Misses: 0
1e5-> Hits: 18122, Late: 0, Early: 0, Misses: 0
1e7-> Hits: 14518, Late: 0, Early: 0, Misses: 0
1e8-> Hits: 0, Late: 18175, Early: 0, Misses: 0
1ea-> Hits: 15376, Late: 0, Early: 0, Misses: 8
1ee-> Hits: 37, Late: 18138, Early: 0, Misses: 0
1f0-> Hits: 12762, Late: 5413, Early: 0, Misses: 0
1f1-> Hits: 1723, Late: 18, Early: 0, Misses: 0
1f2-> Hits: 9790, Late: 3956, Early: 0, Misses: 0
1f6-> Hits: 16522, Late: 0, Early: 0, Misses: 0
1f7-> Hits: 18181, Late: 17856, Early: 0, Misses: 312
1fc-> Hits: 9698, Late: 2239, Early: 0, Misses: 0
1fe-> Hits: 13445, Late: 0, Early: 0, Misses: 0
1ff-> Hits: 719, Late: 30, Early: 0, Misses: 0
201-> Hits: 35235, Late: 5741, Early: 0, Misses: 0
203-> Hits: 18175, Late: 0, Early: 0, Misses: 0
204-> Hits: 87, Late: 18088, Early: 0, Misses: 0
205-> Hits: 18175, Late: 0, Early: 0, Misses: 0
207-> Hits: 30226, Late: 0, Early: 0, Misses: 45
209-> Hits: 4289, Late: 5631, Early: 0, Misses: 0
20a-> Hits: 18175, Late: 0, Early: 0, Misses: 0
20b-> Hits: 18175, Late: 0, Early: 0, Misses: 0
20f-> Hits: 9346, Late: 1531, Early: 0, Misses: 0
213-> Hits: 18175, Late: 0, Early: 0, Misses: 0
214-> Hits: 1563, Late: 152, Early: 0, Misses: 0
215-> Hits: 17632, Late: 50, Early: 0, Misses: 21
21a-> Hits: 1003, Late: 17171, Early: 0, Misses: 0
21c-> Hits: 18175, Late: 0, Early: 0, Misses: 0
21d-> Hits: 19746, Late: 2458, Early: 0, Misses: 0
21f-> Hits: 21845, Late: 0, Early: 0, Misses: 3
221-> Hits: 18175, Late: 0, Early: 0, Misses: 0
224-> Hits: 11297, Late: 0, Early: 0, Misses: 0
227-> Hits: 4905, Late: 13269, Early: 0, Misses: 0
229-> Hits: 13403, Late: 2043, Early: 0, Misses: 0
22a-> Hits: 6510, Late: 0, Early: 0, Misses: 0
22b-> Hits: 2370, Late: 17426, Early: 0, Misses: 0
22e-> Hits: 18692, Late: 0, Early: 0, Misses: 0
22f-> Hits: 9258, Late: 0, Early: 0, Misses: 0
230-> Hits: 17293, Late: 0, Early: 0, Misses: 881
234-> Hits: 18175, Late: 0, Early: 0, Misses: 0
235-> Hits: 191, Late: 4384, Early: 0, Misses: 0
239-> Hits: 18173, Late: 0, Early: 0, Misses: 1
23a-> Hits: 17674, Late: 0, Early: 0, Misses: 0
23e-> Hits: 1874, Late: 0, Early: 0, Misses: 3
240-> Hits: 7018, Late: 0, Early: 0, Misses: 0
241-> Hits: 12965, Late: 0, Early: 0, Misses: 1
242-> Hits: 4467, Late: 2247, Early: 0, Misses: 0
243-> Hits: 1504, Late: 16670, Early: 0, Misses: 0
245-> Hits: 16735, Late: 1, Early: 0, Misses: 1439
247-> Hits: 34435, Late: 1059, Early: 0, Misses: 0
248-> Hits: 24575, Late: 0, Early: 0, Misses: 2
24a-> Hits: 16476, Late: 0, Early: 0, Misses: 0
24d-> Hits: 5452, Late: 12722, Early: 0, Misses: 0
24f-> Hits: 25204, Late: 0, Early: 0, Misses: 1
251-> Hits: 18175, Late: 0, Early: 0, Misses: 0
253-> Hits: 17508, Late: 0, Early: 0, Misses: 0
254-> Hits: 18175, Late: 0, Early: 0, Misses: 0
256-> Hits: 1636, Late: 16539, Early: 0, Misses: 0
257-> Hits: 18171, Late: 0, Early: 0, Misses: 3
258-> Hits: 2945, Late: 0, Early: 0, Misses: 0
25d-> Hits: 35134, Late: 0, Early: 0, Misses: 0
25f-> Hits: 13881, Late: 2496, Early: 0, Misses: 4
260-> Hits: 18071, Late: 0, Early: 0, Misses: 0
262-> Hits: 12409, Late: 1609, Early: 0, Misses: 0
264-> Hits: 870, Late: 17304, Early: 0, Misses: 0
265-> Hits: 1157, Late: 0, Early: 0, Misses: 2
266-> Hits: 18173, Late: 0, Early: 0, Misses: 0
267-> Hits: 12252, Late: 2183, Early: 0, Misses: 0
269-> Hits: 15284, Late: 2307, Early: 0, Misses: 0
26d-> Hits: 18159, Late: 0, Early: 0, Misses: 15
26e-> Hits: 16289, Late: 4547, Early: 0, Misses: 0
26f-> Hits: 10087, Late: 0, Early: 0, Misses: 2
270-> Hits: 18175, Late: 0, Early: 0, Misses: 0
273-> Hits: 18175, Late: 0, Early: 0, Misses: 0
274-> Hits: 18175, Late: 0, Early: 0, Misses: 0
277-> Hits: 35123, Late: 17079, Early: 0, Misses: 0
27b-> Hits: 1176, Late: 0, Early: 0, Misses: 2
27d-> Hits: 9778, Late: 0, Early: 0, Misses: 2
282-> Hits: 18175, Late: 0, Early: 0, Misses: 0
283-> Hits: 36332, Late: 0, Early: 0, Misses: 17
284-> Hits: 2588, Late: 15587, Early: 0, Misses: 0
285-> Hits: 11459, Late: 1311, Early: 0, Misses: 0
289-> Hits: 17392, Late: 0, Early: 0, Misses: 0
28b-> Hits: 2300, Late: 0, Early: 0, Misses: 0
28f-> Hits: 18175, Late: 0, Early: 0, Misses: 0
290-> Hits: 30475, Late: 4055, Early: 0, Misses: 1
291-> Hits: 17629, Late: 106, Early: 0, Misses: 12
292-> Hits: 15315, Late: 0, Early: 0, Misses: 0
296-> Hits: 14049, Late: 1548, Early: 0, Misses: 0
298-> Hits: 6508, Late: 11666, Early: 0, Misses: 0
29a-> Hits: 16997, Late: 0, Early: 0, Misses: 0
29c-> Hits: 13901, Late: 2281, Early: 0, Misses: 0
29e-> Hits: 5950, Late: 2363, Early: 0, Misses: 0
29f-> Hits: 127, Late: 45, Early: 0, Misses: 2
2a5-> Hits: 33133, Late: 5, Early: 0, Misses: 0
2ab-> Hits: 16700, Late: 1327, Early: 0, Misses: 0
2ac-> Hits: 31220, Late: 2418, Early: 0, Misses: 0
2ad-> Hits: 5137, Late: 13140, Early: 0, Misses: 2
2b2-> Hits: 49849, Late: 2056, Early: 0, Misses: 0
2b3-> Hits: 29208, Late: 0, Early: 0, Misses: 0
2b8-> Hits: 9444, Late: 2351, Early: 0, Misses: 0
2b9-> Hits: 0, Late: 18175, Early: 0, Misses: 0
2ba-> Hits: 9957, Late: 1996, Early: 0, Misses: 0
2bd-> Hits: 2984, Late: 0, Early: 0, Misses: 0
2be-> Hits: 18148, Late: 0, Early: 0, Misses: 26
2bf-> Hits: 18043, Late: 0, Early: 0, Misses: 0
2c4-> Hits: 3531, Late: 19208, Early: 0, Misses: 0
2c5-> Hits: 38857, Late: 15652, Early: 0, Misses: 14
2c9-> Hits: 4830, Late: 13345, Early: 0, Misses: 0
2ca-> Hits: 18175, Late: 0, Early: 0, Misses: 0
2cb-> Hits: 1313, Late: 0, Early: 0, Misses: 0
2cd-> Hits: 18115, Late: 0, Early: 0, Misses: 59
2cf-> Hits: 9845, Late: 2338, Early: 0, Misses: 0
2d0-> Hits: 5160, Late: 13014, Early: 0, Misses: 0
2d2-> Hits: 13846, Late: 2450, Early: 0, Misses: 0
2d6-> Hits: 13045, Late: 0, Early: 0, Misses: 15
2d7-> Hits: 29244, Late: 1685, Early: 0, Misses: 0
2da-> Hits: 18068, Late: 0, Early: 0, Misses: 0
2db-> Hits: 7964, Late: 10320, Early: 0, Misses: 0
2dd-> Hits: 17984, Late: 0, Early: 0, Misses: 0
2e0-> Hits: 1303, Late: 0, Early: 0, Misses: 0
2e2-> Hits: 1554, Late: 16621, Early: 0, Misses: 0
2e3-> Hits: 18175, Late: 0, Early: 0, Misses: 0
2e5-> Hits: 4770, Late: 2059, Early: 0, Misses: 0
2e6-> Hits: 8597, Late: 18146, Early: 0, Misses: 0
2e7-> Hits: 457, Late: 0, Early: 0, Misses: 0
2ea-> Hits: 12817, Late: 0, Early: 0, Misses: 1
2eb-> Hits: 4899, Late: 5460, Early: 0, Misses: 0
2ec-> Hits: 4868, Late: 13307, Early: 0, Misses: 0
2ee-> Hits: 18236, Late: 0, Early: 0, Misses: 2
2ef-> Hits: 18175, Late: 0, Early: 0, Misses: 0
2f2-> Hits: 5713, Late: 12461, Early: 0, Misses: 0
2f3-> Hits: 18156, Late: 0, Early: 0, Misses: 0
2f5-> Hits: 18284, Late: 0, Early: 0, Misses: 1
2f6-> Hits: 1857, Late: 204, Early: 0, Misses: 0
2f7-> Hits: 10784, Late: 2941, Early: 0, Misses: 0
2fd-> Hits: 906, Late: 0, Early: 0, Misses: 0
2fe-> Hits: 13376, Late: 0, Early: 0, Misses: 0
301-> Hits: 24347, Late: 2749, Early: 0, Misses: 0
303-> Hits: 5168, Late: 0, Early: 0, Misses: 0
305-> Hits: 6339, Late: 11835, Early: 0, Misses: 0
308-> Hits: 399, Late: 17776, Early: 0, Misses: 0
30a-> Hits: 30422, Late: 2100, Early: 0, Misses: 0
30d-> Hits: 11146, Late: 2408, Early: 0, Misses: 0
311-> Hits: 9558, Late: 0, Early: 0, Misses: 1
313-> Hits: 8429, Late: 0, Early: 0, Misses: 0
316-> Hits: 5445, Late: 12730, Early: 0, Misses: 0
317-> Hits: 34648, Late: 0, Early: 0, Misses: 0
318-> Hits: 18175, Late: 0, Early: 0, Misses: 0
31b-> Hits: 9882, Late: 19536, Early: 0, Misses: 0
320-> Hits: 18052, Late: 0, Early: 0, Misses: 0
321-> Hits: 5163, Late: 0, Early: 0, Misses: 9
324-> Hits: 17785, Late: 0, Early: 0, Misses: 0
325-> Hits: 18175, Late: 0, Early: 0, Misses: 0
326-> Hits: 5833, Late: 12341, Early: 0, Misses: 0
328-> Hits: 7863, Late: 1733, Early: 0, Misses: 0
32b-> Hits: 5567, Late: 3339, Early: 0, Misses: 0
331-> Hits: 2980, Late: 0, Early: 0, Misses: 0
332-> Hits: 9138, Late: 0, Early: 0, Misses: 0
337-> Hits: 18175, Late: 0, Early: 0, Misses: 0
339-> Hits: 4293, Late: 13882, Early: 0, Misses: 0
33a-> Hits: 23567, Late: 12782, Early: 0, Misses: 0
33d-> Hits: 18175, Late: 0, Early: 0, Misses: 0
33e-> Hits: 8834, Late: 2359, Early: 0, Misses: 0
33f-> Hits: 3906, Late: 2771, Early: 0, Misses: 0
343-> Hits: 12496, Late: 1, Early: 0, Misses: 5678
344-> Hits: 13410, Late: 0, Early: 0, Misses: 0
345-> Hits: 1347, Late: 0, Early: 0, Misses: 0
348-> Hits: 3704, Late: 14471, Early: 0, Misses: 0
34c-> Hits: 14465, Late: 1, Early: 0, Misses: 3709
34d-> Hits: 18175, Late: 0, Early: 0, Misses: 0
34f-> Hits: 18044, Late: 0, Early: 0, Misses: 0
351-> Hits: 11305, Late: 0, Early: 0, Misses: 0
355-> Hits: 18175, Late: 0, Early: 0, Misses: 0
356-> Hits: 39609, Late: 2620, Early: 0, Misses: 0
358-> Hits: 18175, Late: 0, Early: 0, Misses: 0
35d-> Hits: 18175, Late: 0, Early: 0, Misses: 0
35f-> Hits: 18175, Late: 0, Early: 0, Misses: 0
367-> Hits: 18169, Late: 0, Early: 0, Misses: 0
368-> Hits: 18175, Late: 0, Early: 0, Misses: 0
369-> Hits: 13200, Late: 3220, Early: 0, Misses: 0
36f-> Hits: 18175, Late: 0, Early: 0, Misses: 0
370-> Hits: 5669, Late: 0, Early: 0, Misses: 0
371-> Hits: 18175, Late: 0, Early: 0, Misses: 0
374-> Hits: 10871, Late: 0, Early: 0, Misses: 0
378-> Hits: 9323, Late: 1099, Early: 0, Misses: 0
37a-> Hits: 673, Late: 0, Early: 0, Misses: 0
37b-> Hits: 17852, Late: 0, Early: 0, Misses: 0
37d-> Hits: 11345, Late: 0, Early: 0, Misses: 0
380-> Hits: 18175, Late: 0, Early: 0, Misses: 0
385-> Hits: 20038, Late: 15187, Early: 0, Misses: 0
387-> Hits: 8571, Late: 3481, Early: 0, Misses: 0
388-> Hits: 0, Late: 18174, Early: 0, Misses: 0
389-> Hits: 36350, Late: 0, Early: 0, Misses: 0
38a-> Hits: 6104, Late: 0, Early: 0, Misses: 0
38e-> Hits: 752, Late: 17422, Early: 0, Misses: 0
38f-> Hits: 5540, Late: 12635, Early: 0, Misses: 0
391-> Hits: 7528, Late: 0, Early: 0, Misses: 0
393-> Hits: 18071, Late: 0, Early: 0, Misses: 0
394-> Hits: 18175, Late: 0, Early: 0, Misses: 0
396-> Hits: 36350, Late: 0, Early: 0, Misses: 0
398-> Hits: 16593, Late: 0, Early: 0, Misses: 0
39d-> Hits: 7709, Late: 10466, Early: 0, Misses: 0
39f-> Hits: 18175, Late: 0, Early: 0, Misses: 0
3a2-> Hits: 2138, Late: 18144, Early: 0, Misses: 0
3a3-> Hits: 13421, Late: 2398, Early: 0, Misses: 0
3a5-> Hits: 18175, Late: 0, Early: 0, Misses: 0
3a7-> Hits: 9796, Late: 19043, Early: 0, Misses: 0
3a9-> Hits: 16511, Late: 0, Early: 0, Misses: 0
3b0-> Hits: 2795, Late: 0, Early: 0, Misses: 0
3b1-> Hits: 20490, Late: 2009, Early: 0, Misses: 0
3b6-> Hits: 33885, Late: 0, Early: 0, Misses: 0
3b9-> Hits: 8483, Late: 12533, Early: 0, Misses: 0
3bb-> Hits: 1100, Late: 17075, Early: 0, Misses: 0
3be-> Hits: 11825, Late: 2840, Early: 0, Misses: 0
3bf-> Hits: 35144, Late: 0, Early: 0, Misses: 0
3c0-> Hits: 4495, Late: 14371, Early: 0, Misses: 0
3c6-> Hits: 0, Late: 18174, Early: 0, Misses: 0
3c8-> Hits: 5141, Late: 13034, Early: 0, Misses: 0
3cc-> Hits: 5438, Late: 2514, Early: 0, Misses: 0
3d1-> Hits: 25510, Late: 0, Early: 0, Misses: 0
3d2-> Hits: 18175, Late: 0, Early: 0, Misses: 0
3d3-> Hits: 27205, Late: 0, Early: 0, Misses: 0
3d6-> Hits: 6294, Late: 2224, Early: 0, Misses: 0
3d8-> Hits: 15786, Late: 1750, Early: 0, Misses: 0
3d9-> Hits: 11214, Late: 12302, Early: 0, Misses: 0
3da-> Hits: 17765, Late: 0, Early: 0, Misses: 0
3db-> Hits: 30521, Late: 953, Early: 0, Misses: 0
3dd-> Hits: 18174, Late: 0, Early: 0, Misses: 0
3df-> Hits: 6618, Late: 2497, Early: 0, Misses: 0
3e1-> Hits: 1559, Late: 0, Early: 0, Misses: 0
3e4-> Hits: 18175, Late: 0, Early: 0, Misses: 0
3e6-> Hits: 10668, Late: 16184, Early: 0, Misses: 0
3ea-> Hits: 10347, Late: 0, Early: 0, Misses: 0
3eb-> Hits: 319, Late: 0, Early: 0, Misses: 0
3ec-> Hits: 24610, Late: 4038, Early: 0, Misses: 0
3ee-> Hits: 36350, Late: 0, Early: 0, Misses: 0
3ef-> Hits: 6544, Late: 11631, Early: 0, Misses: 0
3f0-> Hits: 5385, Late: 12790, Early: 0, Misses: 0
3f1-> Hits: 16565, Late: 1551, Early: 0, Misses: 0
3f4-> Hits: 12109, Late: 2892, Early: 0, Misses: 0
3f9-> Hits: 11254, Late: 0, Early: 0, Misses: 0
3fd-> Hits: 16780, Late: 0, Early: 0, Misses: 0
3fe-> Hits: 26127, Late: 0, Early: 0, Misses: 0
400-> Hits: 4378, Late: 13796, Early: 0, Misses: 0
403-> Hits: 6102, Late: 12073, Early: 0, Misses: 0
404-> Hits: 18175, Late: 0, Early: 0, Misses: 0
407-> Hits: 23897, Late: 0, Early: 0, Misses: 0
408-> Hits: 7853, Late: 3098, Early: 0, Misses: 0
40a-> Hits: 18175, Late: 0, Early: 0, Misses: 0
40c-> Hits: 14584, Late: 18866, Early: 0, Misses: 0
411-> Hits: 44716, Late: 4661, Early: 0, Misses: 0
413-> Hits: 7996, Late: 0, Early: 0, Misses: 0
417-> Hits: 6903, Late: 0, Early: 0, Misses: 0
418-> Hits: 36349, Late: 0, Early: 0, Misses: 0
41b-> Hits: 5847, Late: 12328, Early: 0, Misses: 0
41d-> Hits: 18016, Late: 0, Early: 0, Misses: 0
41f-> Hits: 1091, Late: 17084, Early: 0, Misses: 0
420-> Hits: 20229, Late: 5770, Early: 0, Misses: 0
421-> Hits: 17966, Late: 0, Early: 0, Misses: 0
424-> Hits: 18134, Late: 0, Early: 0, Misses: 0
425-> Hits: 9039, Late: 0, Early: 0, Misses: 0
42c-> Hits: 7259, Late: 1596, Early: 0, Misses: 0
42e-> Hits: 26457, Late: 3650, Early: 0, Misses: 0
42f-> Hits: 15898, Late: 0, Early: 0, Misses: 0
432-> Hits: 18175, Late: 0, Early: 0, Misses: 0
433-> Hits: 18175, Late: 0, Early: 0, Misses: 0
435-> Hits: 11274, Late: 13773, Early: 0, Misses: 0
437-> Hits: 18121, Late: 0, Early: 0, Misses: 0
43a-> Hits: 11188, Late: 1404, Early: 0, Misses: 0
43b-> Hits: 14580, Late: 2559, Early: 0, Misses: 0
43c-> Hits: 18175, Late: 0, Early: 0, Misses: 0
43e-> Hits: 17353, Late: 0, Early: 0, Misses: 0
43f-> Hits: 3950, Late: 0, Early: 0, Misses: 0
440-> Hits: 18175, Late: 18175, Early: 0, Misses: 0
445-> Hits: 4332, Late: 13843, Early: 0, Misses: 0
446-> Hits: 19391, Late: 0, Early: 0, Misses: 0
447-> Hits: 14360, Late: 1343, Early: 0, Misses: 0
449-> Hits: 5220, Late: 0, Early: 0, Misses: 0
44b-> Hits: 10041, Late: 0, Early: 0, Misses: 0
44c-> Hits: 14076, Late: 1877, Early: 0, Misses: 0
44e-> Hits: 24, Late: 18067, Early: 0, Misses: 0
450-> Hits: 8867, Late: 2653, Early: 0, Misses: 0
452-> Hits: 18015, Late: 0, Early: 0, Misses: 0
453-> Hits: 18175, Late: 0, Early: 0, Misses: 0
456-> Hits: 8677, Late: 0, Early: 0, Misses: 0
457-> Hits: 10156, Late: 0, Early: 0, Misses: 0
45c-> Hits: 17704, Late: 343, Early: 0, Misses: 0
45e-> Hits: 5, Late: 17413, Early: 0, Misses: 757
460-> Hits: 252, Late: 0, Early: 0, Misses: 0
462-> Hits: 13707, Late: 2939, Early: 0, Misses: 0
463-> Hits: 34418, Late: 1931, Early: 0, Misses: 0
469-> Hits: 4974, Late: 0, Early: 0, Misses: 0
46c-> Hits: 42, Late: 18133, Early: 0, Misses: 0
46e-> Hits: 15820, Late: 0, Early: 0, Misses: 0
471-> Hits: 7937, Late: 978, Early: 0, Misses: 0
476-> Hits: 12580, Late: 0, Early: 0, Misses: 0
477-> Hits: 17877, Late: 17752, Early: 0, Misses: 0
47a-> Hits: 24683, Late: 1886, Early: 0, Misses: 0
47e-> Hits: 4226, Late: 13949, Early: 0, Misses: 0
480-> Hits: 155, Late: 18019, Early: 0, Misses: 0
482-> Hits: 1387, Late: 4572, Early: 0, Misses: 60
483-> Hits: 25154, Late: 0, Early: 0, Misses: 0
485-> Hits: 3696, Late: 2426, Early: 0, Misses: 0
488-> Hits: 5022, Late: 13153, Early: 0, Misses: 0
48c-> Hits: 18175, Late: 0, Early: 0, Misses: 0
48f-> Hits: 11309, Late: 0, Early: 0, Misses: 0
491-> Hits: 31484, Late: 0, Early: 0, Misses: 0
493-> Hits: 15968, Late: 0, Early: 0, Misses: 0
496-> Hits: 8476, Late: 9699, Early: 0, Misses: 0
49b-> Hits: 1521, Late: 0, Early: 0, Misses: 0
49d-> Hits: 18175, Late: 0, Early: 0, Misses: 0
49e-> Hits: 7041, Late: 2467, Early: 0, Misses: 0
4a0-> Hits: 6887, Late: 1743, Early: 0, Misses: 0
4a5-> Hits: 32415, Late: 2185, Early: 0, Misses: 0
4a9-> Hits: 8348, Late: 0, Early: 0, Misses: 0
4aa-> Hits: 18175, Late: 0, Early: 0, Misses: 0
4ae-> Hits: 18174, Late: 0, Early: 0, Misses: 0
4af-> Hits: 17870, Late: 0, Early: 0, Misses: 0
4b1-> Hits: 24033, Late: 12317, Early: 0, Misses: 0
4b2-> Hits: 684, Late: 0, Early: 0, Misses: 0
4b6-> Hits: 29832, Late: 5815, Early: 0, Misses: 15284
4b8-> Hits: 18175, Late: 0, Early: 0, Misses: 0
4be-> Hits: 4604, Late: 2598, Early: 0, Misses: 0
4bf-> Hits: 20135, Late: 1889, Early: 0, Misses: 1209
4c3-> Hits: 15496, Late: 1363, Early: 0, Misses: 0
4c5-> Hits: 17399, Late: 0, Early: 0, Misses: 0
4c8-> Hits: 17900, Late: 2, Early: 0, Misses: 0
4c9-> Hits: 5475, Late: 12700, Early: 0, Misses: 0
4cd-> Hits: 16440, Late: 0, Early: 0, Misses: 0
4ce-> Hits: 23220, Late: 2393, Early: 0, Misses: 0
4d0-> Hits: 18175, Late: 0, Early: 0, Misses: 0
4d2-> Hits: 1031, Late: 17144, Early: 0, Misses: 0
4d7-> Hits: 7682, Late: 0, Early: 0, Misses: 0
4d9-> Hits: 23744, Late: 0, Early: 0, Misses: 0
4de-> Hits: 17206, Late: 14688, Early: 0, Misses: 0
4df-> Hits: 17969, Late: 0, Early: 0, Misses: 0
4e0-> Hits: 2019, Late: 1806, Early: 0, Misses: 681
4e3-> Hits: 24625, Late: 5352, Early: 0, Misses: 0
4e8-> Hits: 16264, Late: 0, Early: 0, Misses: 0
4ea-> Hits: 10907, Late: 0, Early: 0, Misses: 0
4eb-> Hits: 16619, Late: 0, Early: 0, Misses: 0
4ed-> Hits: 8157, Late: 0, Early: 0, Misses: 0
4ef-> Hits: 3209, Late: 2363, Early: 0, Misses: 1796
4f2-> Hits: 20477, Late: 13800, Early: 0, Misses: 0
4f7-> Hits: 25364, Late: 3034, Early: 0, Misses: 0
4f9-> Hits: 15178, Late: 0, Early: 0, Misses: 0
4fc-> Hits: 30768, Late: 0, Early: 0, Misses: 0
502-> Hits: 26023, Late: 0, Early: 0, Misses: 0
504-> Hits: 17955, Late: 0, Early: 0, Misses: 220
507-> Hits: 1921, Late: 16248, Early: 0, Misses: 0
509-> Hits: 36347, Late: 0, Early: 0, Misses: 0
50a-> Hits: 5950, Late: 12225, Early: 0, Misses: 0
50e-> Hits: 4578, Late: 0, Early: 0, Misses: 0
510-> Hits: 8077, Late: 3735, Early: 0, Misses: 0
511-> Hits: 10957, Late: 2674, Early: 0, Misses: 0
513-> Hits: 13699, Late: 700, Early: 0, Misses: 0
516-> Hits: 18175, Late: 0, Early: 0, Misses: 0
518-> Hits: 4809, Late: 0, Early: 0, Misses: 0
51c-> Hits: 18175, Late: 0, Early: 0, Misses: 0
51e-> Hits: 36350, Late: 0, Early: 0, Misses: 0
520-> Hits: 14334, Late: 1506, Early: 0, Misses: 0
523-> Hits: 18175, Late: 0, Early: 0, Misses: 0
525-> Hits: 14496, Late: 2001, Early: 0, Misses: 0
527-> Hits: 2, Late: 18173, Early: 0, Misses: 0
52c-> Hits: 18202, Late: 18148, Early: 0, Misses: 0
52d-> Hits: 15158, Late: 2365, Early: 0, Misses: 0
530-> Hits: 18124, Late: 0, Early: 0, Misses: 0
533-> Hits: 17084, Late: 0, Early: 0, Misses: 0
534-> Hits: 16585, Late: 1476, Early: 0, Misses: 0
536-> Hits: 88, Late: 18087, Early: 0, Misses: 0
539-> Hits: 18175, Late: 0, Early: 0, Misses: 0
53b-> Hits: 25615, Late: 4345, Early: 0, Misses: 0
53c-> Hits: 259, Late: 4480, Early: 0, Misses: 0
53e-> Hits: 18175, Late: 0, Early: 0, Misses: 0
540-> Hits: 18174, Late: 0, Early: 0, Misses: 0
542-> Hits: 0, Late: 18175, Early: 0, Misses: 0
545-> Hits: 8688, Late: 2245, Early: 0, Misses: 0
546-> Hits: 18175, Late: 0, Early: 0, Misses: 0
547-> Hits: 34366, Late: 1984, Early: 0, Misses: 0
54a-> Hits: 13004, Late: 19379, Early: 0, Misses: 0
54b-> Hits: 12348, Late: 0, Early: 0, Misses: 40
550-> Hits: 15592, Late: 4791, Early: 0, Misses: 0
551-> Hits: 1223, Late: 1721, Early: 0, Misses: 0
553-> Hits: 17864, Late: 0, Early: 0, Misses: 0
557-> Hits: 8939, Late: 1817, Early: 0, Misses: 0
558-> Hits: 31207, Late: 0, Early: 0, Misses: 0
55b-> Hits: 193, Late: 17982, Early: 0, Misses: 0
55c-> Hits: 10145, Late: 2416, Early: 0, Misses: 8
55d-> Hits: 17278, Late: 0, Early: 0, Misses: 0
55e-> Hits: 17639, Late: 536, Early: 0, Misses: 0
561-> Hits: 1335, Late: 2516, Early: 0, Misses: 0
562-> Hits: 826, Late: 17348, Early: 0, Misses: 0
565-> Hits: 13843, Late: 0, Early: 0, Misses: 0
567-> Hits: 18175, Late: 0, Early: 0, Misses: 0
568-> Hits: 19022, Late: 0, Early: 0, Misses: 0
56b-> Hits: 33605, Late: 0, Early: 0, Misses: 4
56e-> Hits: 64, Late: 18111, Early: 0, Misses: 0
570-> Hits: 22190, Late: 13144, Early: 0, Misses: 0
573-> Hits: 9685, Late: 20017, Early: 0, Misses: 0
57a-> Hits: 10465, Late: 0, Early: 0, Misses: 0
57b-> Hits: 0, Late: 18175, Early: 0, Misses: 0
57c-> Hits: 18017, Late: 0, Early: 0, Misses: 0
57e-> Hits: 3857, Late: 0, Early: 0, Misses: 0
583-> Hits: 5291, Late: 17352, Early: 0, Misses: 0
585-> Hits: 532, Late: 4115, Early: 0, Misses: 0
588-> Hits: 5198, Late: 0, Early: 0, Misses: 0
58a-> Hits: 18175, Late: 18175, Early: 0, Misses: 0
58d-> Hits: 12932, Late: 15542, Early: 0, Misses: 4
591-> Hits: 18109, Late: 0, Early: 0, Misses: 0
597-> Hits: 18175, Late: 0, Early: 0, Misses: 0
598-> Hits: 443, Late: 2201, Early: 0, Misses: 0
59a-> Hits: 14918, Late: 0, Early: 0, Misses: 0
59e-> Hits: 0, Late: 18175, Early: 0, Misses: 0
59f-> Hits: 25172, Late: 0, Early: 0, Misses: 0
5a0-> Hits: 18175, Late: 0, Early: 0, Misses: 0
5a4-> Hits: 598, Late: 17576, Early: 0, Misses: 0
5a6-> Hits: 10206, Late: 0, Early: 0, Misses: 0
5a9-> Hits: 14257, Late: 4770, Early: 0, Misses: 0
5ac-> Hits: 18121, Late: 0, Early: 0, Misses: 0
5ae-> Hits: 0, Late: 18175, Early: 0, Misses: 0
5af-> Hits: 12489, Late: 0, Early: 0, Misses: 0
5b1-> Hits: 18175, Late: 0, Early: 0, Misses: 0
5b3-> Hits: 18174, Late: 0, Early: 0, Misses: 0
5b7-> Hits: 1047, Late: 17127, Early: 0, Misses: 0
5b8-> Hits: 18175, Late: 18175, Early: 0, Misses: 0
5b9-> Hits: 18175, Late: 0, Early: 0, Misses: 0
5bc-> Hits: 18174, Late: 0, Early: 0, Misses: 0
5c0-> Hits: 556, Late: 17619, Early: 0, Misses: 0
5c1-> Hits: 18122, Late: 0, Early: 0, Misses: 0
5c3-> Hits: 18175, Late: 0, Early: 0, Misses: 0
5c4-> Hits: 31741, Late: 1722, Early: 0, Misses: 0
5ca-> Hits: 0, Late: 18175, Early: 0, Misses: 0
5cd-> Hits: 5938, Late: 0, Early: 0, Misses: 0
5cf-> Hits: 1668, Late: 16507, Early: 0, Misses: 0
5d0-> Hits: 35226, Late: 424, Early: 0, Misses: 0
5d1-> Hits: 18114, Late: 0, Early: 0, Misses: 0
5d3-> Hits: 18175, Late: 0, Early: 0, Misses: 0
5d5-> Hits: 15701, Late: 11932, Early: 0, Misses: 0
5d8-> Hits: 18121, Late: 0, Early: 0, Misses: 0
5da-> Hits: 28842, Late: 2361, Early: 0, Misses: 0
5dc-> Hits: 18175, Late: 0, Early: 0, Misses: 0
5de-> Hits: 0, Late: 18175, Early: 0, Misses: 0
5e2-> Hits: 18175, Late: 0, Early: 0, Misses: 0
5e4-> Hits: 4897, Late: 31453, Early: 0, Misses: 0
5e9-> Hits: 15870, Late: 0, Early: 0, Misses: 0
5ea-> Hits: 30803, Late: 1, Early: 0, Misses: 0
5ef-> Hits: 29863, Late: 20546, Early: 0, Misses: 0
5f0-> Hits: 18175, Late: 0, Early: 0, Misses: 0
5f1-> Hits: 18175, Late: 0, Early: 0, Misses: 0
5f4-> Hits: 302, Late: 17873, Early: 0, Misses: 0
5f6-> Hits: 33873, Late: 0, Early: 0, Misses: 0
5fe-> Hits: 18175, Late: 0, Early: 0, Misses: 0
5ff-> Hits: 30040, Late: 0, Early: 0, Misses: 3
601-> Hits: 8476, Late: 1, Early: 0, Misses: 0
602-> Hits: 18015, Late: 0, Early: 0, Misses: 0
607-> Hits: 0, Late: 18175, Early: 0, Misses: 0
609-> Hits: 3072, Late: 15103, Early: 0, Misses: 0
60b-> Hits: 18175, Late: 0, Early: 0, Misses: 0
60e-> Hits: 2608, Late: 0, Early: 0, Misses: 0
60f-> Hits: 32, Late: 18143, Early: 0, Misses: 0
611-> Hits: 16735, Late: 0, Early: 0, Misses: 0
613-> Hits: 5789, Late: 12386, Early: 0, Misses: 0
618-> Hits: 18175, Late: 0, Early: 0, Misses: 0
619-> Hits: 0, Late: 18175, Early: 0, Misses: 0
61c-> Hits: 35375, Late: 1, Early: 0, Misses: 0
61f-> Hits: 185, Late: 4486, Early: 0, Misses: 0
621-> Hits: 44624, Late: 9696, Early: 0, Misses: 0
623-> Hits: 9623, Late: 3727, Early: 0, Misses: 0
626-> Hits: 1587, Late: 0, Early: 0, Misses: 0
62a-> Hits: 18175, Late: 0, Early: 0, Misses: 0
62b-> Hits: 6788, Late: 1725, Early: 0, Misses: 0
62d-> Hits: 36352, Late: 18173, Early: 0, Misses: 0
630-> Hits: 8842, Late: 0, Early: 0, Misses: 0
633-> Hits: 347, Late: 2299, Early: 0, Misses: 0
634-> Hits: 12923, Late: 1, Early: 0, Misses: 0
63a-> Hits: 18175, Late: 0, Early: 0, Misses: 0
63c-> Hits: 6174, Late: 12001, Early: 0, Misses: 0
63d-> Hits: 16899, Late: 0, Early: 0, Misses: 0
63e-> Hits: 5, Late: 18170, Early: 0, Misses: 0
640-> Hits: 30861, Late: 5489, Early: 0, Misses: 0
641-> Hits: 24774, Late: 5262, Early: 0, Misses: 0
644-> Hits: 396, Late: 2369, Early: 0, Misses: 0
647-> Hits: 17096, Late: 0, Early: 0, Misses: 0
64b-> Hits: 18175, Late: 0, Early: 0, Misses: 0
64d-> Hits: 18175, Late: 0, Early: 0, Misses: 0
64e-> Hits: 16726, Late: 0, Early: 0, Misses: 1449
64f-> Hits: 46851, Late: 1511, Early: 0, Misses: 0
654-> Hits: 23710, Late: 0, Early: 0, Misses: 0
656-> Hits: 8, Late: 18167, Early: 0, Misses: 0
659-> Hits: 926, Late: 17249, Early: 0, Misses: 0
65b-> Hits: 0, Late: 18175, Early: 0, Misses: 0
65c-> Hits: 6808, Late: 11367, Early: 0, Misses: 0
65e-> Hits: 2239, Late: 0, Early: 0, Misses: 0
660-> Hits: 18175, Late: 0, Early: 0, Misses: 0
661-> Hits: 30729, Late: 2183, Early: 0, Misses: 0
665-> Hits: 91, Late: 4490, Early: 0, Misses: 0
666-> Hits: 5186, Late: 12989, Early: 0, Misses: 0
668-> Hits: 18175, Late: 0, Early: 0, Misses: 0
66a-> Hits: 0, Late: 18175, Early: 0, Misses: 0
66c-> Hits: 11338, Late: 0, Early: 0, Misses: 0
66f-> Hits: 18026, Late: 0, Early: 0, Misses: 0
671-> Hits: 25036, Late: 11314, Early: 0, Misses: 0
674-> Hits: 22130, Late: 1447, Early: 0, Misses: 0
676-> Hits: 13577, Late: 2663, Early: 0, Misses: 0
677-> Hits: 18075, Late: 0, Early: 0, Misses: 0
678-> Hits: 965, Late: 2499, Early: 0, Misses: 0
679-> Hits: 13124, Late: 1096, Early: 0, Misses: 0
67c-> Hits: 9535, Late: 0, Early: 0, Misses: 0
67e-> Hits: 18175, Late: 18175, Early: 0, Misses: 0
67f-> Hits: 375, Late: 0, Early: 0, Misses: 0
681-> Hits: 9701, Late: 11023, Early: 0, Misses: 0
682-> Hits: 18172, Late: 0, Early: 0, Misses: 0
684-> Hits: 1632, Late: 16543, Early: 0, Misses: 0
686-> Hits: 7963, Late: 2926, Early: 0, Misses: 0
689-> Hits: 3649, Late: 2522, Early: 0, Misses: 0
68b-> Hits: 17114, Late: 0, Early: 0, Misses: 0
68d-> Hits: 27078, Late: 1, Early: 0, Misses: 0
68e-> Hits: 5689, Late: 30661, Early: 0, Misses: 0
695-> Hits: 6008, Late: 12167, Early: 0, Misses: 0
696-> Hits: 7128, Late: 0, Early: 0, Misses: 0
697-> Hits: 15803, Late: 1, Early: 0, Misses: 2371
698-> Hits: 0, Late: 18175, Early: 0, Misses: 0
69a-> Hits: 9057, Late: 2583, Early: 0, Misses: 0
69c-> Hits: 18175, Late: 0, Early: 0, Misses: 0
69d-> Hits: 45, Late: 18130, Early: 0, Misses: 0
6a5-> Hits: 17039, Late: 0, Early: 0, Misses: 0
6a7-> Hits: 0, Late: 18175, Early: 0, Misses: 0
6a8-> Hits: 18173, Late: 0, Early: 0, Misses: 0
6aa-> Hits: 5927, Late: 0, Early: 0, Misses: 0
6ac-> Hits: 54, Late: 18121, Early: 0, Misses: 0
6b3-> Hits: 143, Late: 18032, Early: 0, Misses: 0
6b5-> Hits: 0, Late: 18175, Early: 0, Misses: 0
6b7-> Hits: 58961, Late: 0, Early: 0, Misses: 2531
6b8-> Hits: 12691, Late: 2756, Early: 0, Misses: 0
6bb-> Hits: 707, Late: 17468, Early: 0, Misses: 0
6be-> Hits: 8161, Late: 0, Early: 0, Misses: 0
6c0-> Hits: 12632, Late: 5543, Early: 0, Misses: 0
6c3-> Hits: 18005, Late: 0, Early: 0, Misses: 0
6c4-> Hits: 10468, Late: 0, Early: 0, Misses: 0
6c5-> Hits: 0, Late: 18175, Early: 0, Misses: 0
6c6-> Hits: 1142, Late: 17033, Early: 0, Misses: 0
6ca-> Hits: 17967, Late: 0, Early: 0, Misses: 0
6cb-> Hits: 18322, Late: 20393, Early: 0, Misses: 15810
6cc-> Hits: 11565, Late: 0, Early: 0, Misses: 0
6cd-> Hits: 9869, Late: 0, Early: 0, Misses: 0
6d0-> Hits: 18121, Late: 0, Early: 0, Misses: 0
6d3-> Hits: 8172, Late: 1644, Early: 0, Misses: 0
6d5-> Hits: 392, Late: 18175, Early: 0, Misses: 0
6d9-> Hits: 36, Late: 18139, Early: 0, Misses: 0
6da-> Hits: 15809, Late: 18003, Early: 0, Misses: 0
6dc-> Hits: 4487, Late: 13688, Early: 0, Misses: 0
6de-> Hits: 53583, Late: 0, Early: 0, Misses: 0
6df-> Hits: 18175, Late: 0, Early: 0, Misses: 0
6e1-> Hits: 10491, Late: 2424, Early: 0, Misses: 0
6e3-> Hits: 10065, Late: 0, Early: 0, Misses: 0
6e4-> Hits: 4459, Late: 16961, Early: 0, Misses: 12
6e8-> Hits: 18175, Late: 0, Early: 0, Misses: 0
6eb-> Hits: 4774, Late: 13401, Early: 0, Misses: 0
6ed-> Hits: 9001, Late: 579, Early: 0, Misses: 0
6ef-> Hits: 18415, Late: 2422, Early: 0, Misses: 2066
6f0-> Hits: 18175, Late: 0, Early: 0, Misses: 0
6f1-> Hits: 11527, Late: 3150, Early: 0, Misses: 0
6f5-> Hits: 34978, Late: 0, Early: 0, Misses: 0
6f8-> Hits: 18175, Late: 0, Early: 0, Misses: 0
6ff-> Hits: 12648, Late: 5192, Early: 0, Misses: 0
701-> Hits: 15954, Late: 0, Early: 0, Misses: 0
702-> Hits: 15533, Late: 0, Early: 0, Misses: 0
703-> Hits: 18175, Late: 0, Early: 0, Misses: 0
704-> Hits: 14645, Late: 2315, Early: 0, Misses: 0
708-> Hits: 36227, Late: 0, Early: 0, Misses: 0
70a-> Hits: 1632, Late: 3831, Early: 0, Misses: 0
70b-> Hits: 5970, Late: 0, Early: 0, Misses: 0
70d-> Hits: 18175, Late: 0, Early: 0, Misses: 0
711-> Hits: 15015, Late: 0, Early: 0, Misses: 0
713-> Hits: 9820, Late: 1103, Early: 0, Misses: 0
716-> Hits: 14809, Late: 1867, Early: 0, Misses: 0
718-> Hits: 12464, Late: 0, Early: 0, Misses: 0
71a-> Hits: 18175, Late: 0, Early: 0, Misses: 0
71b-> Hits: 18174, Late: 1, Early: 0, Misses: 0
71e-> Hits: 12507, Late: 5668, Early: 0, Misses: 0
720-> Hits: 3922, Late: 14253, Early: 0, Misses: 0
725-> Hits: 35584, Late: 0, Early: 0, Misses: 0
727-> Hits: 24781, Late: 3587, Early: 0, Misses: 92
72a-> Hits: 6249, Late: 11926, Early: 0, Misses: 0
72c-> Hits: 15671, Late: 1458, Early: 0, Misses: 0
731-> Hits: 18108, Late: 0, Early: 0, Misses: 0
734-> Hits: 15016, Late: 0, Early: 0, Misses: 0
736-> Hits: 18175, Late: 0, Early: 0, Misses: 0
738-> Hits: 17916, Late: 0, Early: 0, Misses: 0
739-> Hits: 8081, Late: 10094, Early: 0, Misses: 0
73b-> Hits: 4252, Late: 13923, Early: 0, Misses: 0
73d-> Hits: 12655, Late: 5520, Early: 0, Misses: 0
73e-> Hits: 7585, Late: 2607, Early: 0, Misses: 0
742-> Hits: 26015, Late: 0, Early: 0, Misses: 0
746-> Hits: 1273, Late: 0, Early: 0, Misses: 0
747-> Hits: 10058, Late: 1838, Early: 0, Misses: 0
748-> Hits: 6434, Late: 0, Early: 0, Misses: 0
74c-> Hits: 14562, Late: 2249, Early: 0, Misses: 0
74d-> Hits: 18175, Late: 0, Early: 0, Misses: 0
74f-> Hits: 18175, Late: 0, Early: 0, Misses: 0
750-> Hits: 5819, Late: 12356, Early: 0, Misses: 0
751-> Hits: 18175, Late: 0, Early: 0, Misses: 0
753-> Hits: 18175, Late: 0, Early: 0, Misses: 0
754-> Hits: 18175, Late: 0, Early: 0, Misses: 0
756-> Hits: 11032, Late: 3088, Early: 0, Misses: 0
75b-> Hits: 12062, Late: 2309, Early: 0, Misses: 0
75c-> Hits: 12838, Late: 5337, Early: 0, Misses: 0
760-> Hits: 18172, Late: 1, Early: 0, Misses: 2
762-> Hits: 16371, Late: 0, Early: 0, Misses: 0
764-> Hits: 18175, Late: 0, Early: 0, Misses: 0
765-> Hits: 15166, Late: 0, Early: 0, Misses: 3009
769-> Hits: 5525, Late: 12650, Early: 0, Misses: 0
76f-> Hits: 5907, Late: 2274, Early: 0, Misses: 0
770-> Hits: 5801, Late: 12285, Early: 0, Misses: 0
772-> Hits: 33146, Late: 0, Early: 0, Misses: 0
773-> Hits: 18175, Late: 0, Early: 0, Misses: 0
777-> Hits: 2556, Late: 0, Early: 0, Misses: 0
77a-> Hits: 6080, Late: 0, Early: 0, Misses: 0
77b-> Hits: 16313, Late: 1843, Early: 0, Misses: 19
77c-> Hits: 31571, Late: 758, Early: 0, Misses: 0
77f-> Hits: 7947, Late: 10228, Early: 0, Misses: 0
781-> Hits: 2815, Late: 0, Early: 0, Misses: 0
783-> Hits: 6575, Late: 0, Early: 0, Misses: 0
785-> Hits: 11721, Late: 2957, Early: 0, Misses: 0
787-> Hits: 11278, Late: 0, Early: 0, Misses: 0
789-> Hits: 14773, Late: 1423, Early: 0, Misses: 0
78f-> Hits: 42230, Late: 1992, Early: 0, Misses: 0
790-> Hits: 18148, Late: 0, Early: 0, Misses: 27
791-> Hits: 14387, Late: 2549, Early: 0, Misses: 1239
794-> Hits: 7128, Late: 11047, Early: 0, Misses: 0
798-> Hits: 18024, Late: 0, Early: 0, Misses: 0
799-> Hits: 5840, Late: 3496, Early: 0, Misses: 0
79c-> Hits: 16071, Late: 0, Early: 0, Misses: 0
79d-> Hits: 14527, Late: 0, Early: 0, Misses: 0
79e-> Hits: 16810, Late: 901, Early: 0, Misses: 0
7a4-> Hits: 10540, Late: 0, Early: 0, Misses: 0
7a5-> Hits: 34543, Late: 1806, Early: 0, Misses: 0
7a6-> Hits: 18175, Late: 0, Early: 0, Misses: 0
7a7-> Hits: 942, Late: 171, Early: 0, Misses: 0
7a9-> Hits: 5093, Late: 0, Early: 0, Misses: 0
7ac-> Hits: 6100, Late: 30250, Early: 0, Misses: 0
7b2-> Hits: 6763, Late: 3386, Early: 0, Misses: 0
7b7-> Hits: 9849, Late: 0, Early: 0, Misses: 0
7ba-> Hits: 39066, Late: 1980, Early: 0, Misses: 0
7bd-> Hits: 10075, Late: 0, Early: 0, Misses: 79
7bf-> Hits: 18175, Late: 0, Early: 0, Misses: 0
7c4-> Hits: 14405, Late: 2098, Early: 0, Misses: 483
7c5-> Hits: 18175, Late: 0, Early: 0, Misses: 0
7cc-> Hits: 18175, Late: 0, Early: 0, Misses: 0
7cd-> Hits: 6998, Late: 0, Early: 0, Misses: 0
7d2-> Hits: 0, Late: 18175, Early: 0, Misses: 0
7d3-> Hits: 12874, Late: 5301, Early: 0, Misses: 0
7d5-> Hits: 17971, Late: 0, Early: 0, Misses: 0
7d8-> Hits: 0, Late: 18175, Early: 0, Misses: 0
7da-> Hits: 36350, Late: 0, Early: 0, Misses: 0
7db-> Hits: 87, Late: 18088, Early: 0, Misses: 0
7dc-> Hits: 13215, Late: 0, Early: 0, Misses: 0
7dd-> Hits: 18070, Late: 0, Early: 0, Misses: 0
7e0-> Hits: 8056, Late: 3257, Early: 0, Misses: 0
7e7-> Hits: 18175, Late: 0, Early: 0, Misses: 0
7e8-> Hits: 18175, Late: 0, Early: 0, Misses: 0
7eb-> Hits: 3205, Late: 18372, Early: 0, Misses: 0
7ec-> Hits: 17090, Late: 0, Early: 0, Misses: 0
7f1-> Hits: 18175, Late: 0, Early: 0, Misses: 0
7f2-> Hits: 14772, Late: 0, Early: 0, Misses: 3403
7f4-> Hits: 18175, Late: 0, Early: 0, Misses: 0
7f5-> Hits: 7173, Late: 2315, Early: 0, Misses: 403
7f7-> Hits: 18175, Late: 0, Early: 0, Misses: 0
7f9-> Hits: 286, Late: 17889, Early: 0, Misses: 0
7fd-> Hits: 18175, Late: 0, Early: 0, Misses: 0
804-> Hits: 18175, Late: 0, Early: 0, Misses: 0
807-> Hits: 18175, Late: 0, Early: 0, Misses: 0
808-> Hits: 18149, Late: 20, Early: 0, Misses: 6
80c-> Hits: 2871, Late: 3670, Early: 0, Misses: 0
80d-> Hits: 18175, Late: 0, Early: 0, Misses: 0
810-> Hits: 9134, Late: 0, Early: 0, Misses: 0
813-> Hits: 11873, Late: 0, Early: 0, Misses: 0
818-> Hits: 12700, Late: 1675, Early: 0, Misses: 0
81a-> Hits: 17696, Late: 0, Early: 0, Misses: 0
81c-> Hits: 18070, Late: 0, Early: 0, Misses: 0
81d-> Hits: 18175, Late: 0, Early: 0, Misses: 0
81e-> Hits: 34690, Late: 0, Early: 0, Misses: 6
822-> Hits: 17699, Late: 0, Early: 0, Misses: 0
829-> Hits: 22327, Late: 0, Early: 0, Misses: 0
82c-> Hits: 17716, Late: 0, Early: 0, Misses: 0
82f-> Hits: 18021, Late: 0, Early: 0, Misses: 0
831-> Hits: 6192, Late: 2688, Early: 0, Misses: 0
834-> Hits: 665, Late: 0, Early: 0, Misses: 0
835-> Hits: 18174, Late: 0, Early: 0, Misses: 0
836-> Hits: 15125, Late: 1306, Early: 0, Misses: 0
838-> Hits: 36267, Late: 1, Early: 0, Misses: 31
839-> Hits: 18175, Late: 0, Early: 0, Misses: 0
841-> Hits: 19572, Late: 1, Early: 0, Misses: 0
84a-> Hits: 36063, Late: 17946, Early: 0, Misses: 0
84f-> Hits: 18174, Late: 1, Early: 0, Misses: 0
851-> Hits: 16340, Late: 0, Early: 0, Misses: 0
856-> Hits: 12239, Late: 1926, Early: 0, Misses: 0
857-> Hits: 18175, Late: 0, Early: 0, Misses: 0
85b-> Hits: 13059, Late: 2164, Early: 0, Misses: 0
85f-> Hits: 17348, Late: 0, Early: 0, Misses: 0
860-> Hits: 8634, Late: 0, Early: 0, Misses: 309
862-> Hits: 1863, Late: 0, Early: 0, Misses: 0
869-> Hits: 18175, Late: 0, Early: 0, Misses: 0
86a-> Hits: 13927, Late: 2312, Early: 0, Misses: 0
86c-> Hits: 17912, Late: 0, Early: 0, Misses: 0
86f-> Hits: 18175, Late: 0, Early: 0, Misses: 0
873-> Hits: 18175, Late: 0, Early: 0, Misses: 0
876-> Hits: 20924, Late: 0, Early: 0, Misses: 0
877-> Hits: 18174, Late: 0, Early: 0, Misses: 0
87e-> Hits: 18175, Late: 0, Early: 0, Misses: 0
87f-> Hits: 19204, Late: 17118, Early: 0, Misses: 0
886-> Hits: 3920, Late: 0, Early: 0, Misses: 0
889-> Hits: 11499, Late: 2690, Early: 0, Misses: 0
88a-> Hits: 18175, Late: 0, Early: 0, Misses: 0
88b-> Hits: 13074, Late: 322, Early: 0, Misses: 0
88c-> Hits: 24811, Late: 7, Early: 0, Misses: 1
890-> Hits: 5752, Late: 0, Early: 0, Misses: 0
891-> Hits: 32906, Late: 341, Early: 0, Misses: 0
898-> Hits: 31739, Late: 1334, Early: 0, Misses: 0
89c-> Hits: 18175, Late: 0, Early: 0, Misses: 0
89d-> Hits: 13877, Late: 1831, Early: 0, Misses: 0
89e-> Hits: 18174, Late: 0, Early: 0, Misses: 0
8a2-> Hits: 2151, Late: 0, Early: 0, Misses: 1
8a5-> Hits: 15450, Late: 2271, Early: 0, Misses: 0
8ab-> Hits: 14447, Late: 2243, Early: 0, Misses: 0
8ac-> Hits: 16533, Late: 1586, Early: 0, Misses: 0
8b0-> Hits: 24076, Late: 0, Early: 0, Misses: 0
8b1-> Hits: 18175, Late: 0, Early: 0, Misses: 0
8b3-> Hits: 15984, Late: 2188, Early: 0, Misses: 0
8b5-> Hits: 3701, Late: 2248, Early: 0, Misses: 0
8b8-> Hits: 14596, Late: 488, Early: 0, Misses: 1
8ba-> Hits: 15453, Late: 16728, Early: 0, Misses: 0
8c0-> Hits: 410, Late: 17765, Early: 0, Misses: 0
8c2-> Hits: 36349, Late: 0, Early: 0, Misses: 0
8c3-> Hits: 4063, Late: 0, Early: 0, Misses: 0
8c4-> Hits: 922, Late: 1891, Early: 0, Misses: 0
8c5-> Hits: 18175, Late: 0, Early: 0, Misses: 0
8c9-> Hits: 17148, Late: 0, Early: 0, Misses: 0
8ca-> Hits: 18174, Late: 0, Early: 0, Misses: 0
8ce-> Hits: 10232, Late: 0, Early: 0, Misses: 225
8d1-> Hits: 1885, Late: 16290, Early: 0, Misses: 0
8d5-> Hits: 18175, Late: 0, Early: 0, Misses: 0
8d6-> Hits: 18353, Late: 17685, Early: 0, Misses: 0
8d7-> Hits: 18121, Late: 0, Early: 0, Misses: 0
8da-> Hits: 3474, Late: 0, Early: 0, Misses: 0
8db-> Hits: 22316, Late: 5598, Early: 0, Misses: 0
8df-> Hits: 2495, Late: 0, Early: 0, Misses: 0
8e4-> Hits: 71498, Late: 17037, Early: 0, Misses: 52
8e6-> Hits: 2157, Late: 238, Early: 0, Misses: 0
8e9-> Hits: 3983, Late: 0, Early: 0, Misses: 0
8ed-> Hits: 18175, Late: 0, Early: 0, Misses: 0
8ee-> Hits: 6564, Late: 11611, Early: 0, Misses: 0
8f1-> Hits: 18174, Late: 0, Early: 0, Misses: 0
8f5-> Hits: 17237, Late: 0, Early: 0, Misses: 0
8fa-> Hits: 19350, Late: 11, Early: 0, Misses: 0
8fd-> Hits: 2218, Late: 15957, Early: 0, Misses: 0
900-> Hits: 17979, Late: 0, Early: 0, Misses: 0
902-> Hits: 18174, Late: 0, Early: 0, Misses: 0
905-> Hits: 635, Late: 17540, Early: 0, Misses: 0
906-> Hits: 845, Late: 3802, Early: 0, Misses: 0
90a-> Hits: 13832, Late: 2278, Early: 0, Misses: 0
90b-> Hits: 14985, Late: 0, Early: 0, Misses: 0
90f-> Hits: 18175, Late: 0, Early: 0, Misses: 0
910-> Hits: 42225, Late: 0, Early: 0, Misses: 2074
912-> Hits: 10540, Late: 0, Early: 0, Misses: 0
915-> Hits: 15486, Late: 1, Early: 0, Misses: 2688
918-> Hits: 18269, Late: 17977, Early: 0, Misses: 0
919-> Hits: 18175, Late: 0, Early: 0, Misses: 0
91a-> Hits: 18069, Late: 0, Early: 0, Misses: 0
91c-> Hits: 35434, Late: 0, Early: 0, Misses: 0
91e-> Hits: 18175, Late: 0, Early: 0, Misses: 0
923-> Hits: 18121, Late: 0, Early: 0, Misses: 0
926-> Hits: 11578, Late: 1809, Early: 0, Misses: 0
927-> Hits: 18175, Late: 0, Early: 0, Misses: 0
929-> Hits: 29062, Late: 0, Early: 0, Misses: 0
930-> Hits: 35999, Late: 2953, Early: 0, Misses: 0
936-> Hits: 18174, Late: 0, Early: 0, Misses: 0
938-> Hits: 7504, Late: 10671, Early: 0, Misses: 0
939-> Hits: 18175, Late: 0, Early: 0, Misses: 0
93a-> Hits: 18175, Late: 0, Early: 0, Misses: 0
93c-> Hits: 16012, Late: 2003, Early: 0, Misses: 160
93d-> Hits: 10484, Late: 2471, Early: 0, Misses: 0
93e-> Hits: 1993, Late: 0, Early: 0, Misses: 0
93f-> Hits: 20563, Late: 2427, Early: 0, Misses: 0
946-> Hits: 18175, Late: 0, Early: 0, Misses: 0
947-> Hits: 18174, Late: 1, Early: 0, Misses: 0
94e-> Hits: 12494, Late: 0, Early: 0, Misses: 0
94f-> Hits: 23996, Late: 12300, Early: 0, Misses: 0
952-> Hits: 4174, Late: 104, Early: 0, Misses: 1
954-> Hits: 4941, Late: 0, Early: 0, Misses: 0
956-> Hits: 4909, Late: 0, Early: 0, Misses: 0
957-> Hits: 17948, Late: 0, Early: 0, Misses: 0
959-> Hits: 9881, Late: 2286, Early: 0, Misses: 0
962-> Hits: 33232, Late: 2255, Early: 0, Misses: 0
965-> Hits: 26356, Late: 3312, Early: 0, Misses: 0
966-> Hits: 11629, Late: 0, Early: 0, Misses: 0
967-> Hits: 18175, Late: 0, Early: 0, Misses: 0
968-> Hits: 18175, Late: 0, Early: 0, Misses: 0
969-> Hits: 5814, Late: 0, Early: 0, Misses: 0
96a-> Hits: 18174, Late: 0, Early: 0, Misses: 0
970-> Hits: 15031, Late: 0, Early: 0, Misses: 0
971-> Hits: 11074, Late: 1257, Early: 0, Misses: 0
97c-> Hits: 18175, Late: 0, Early: 0, Misses: 0
97e-> Hits: 13568, Late: 0, Early: 0, Misses: 0
97f-> Hits: 11099, Late: 0, Early: 0, Misses: 0
981-> Hits: 13504, Late: 2343, Early: 0, Misses: 0
985-> Hits: 18174, Late: 0, Early: 0, Misses: 0
987-> Hits: 18867, Late: 15196, Early: 0, Misses: 0
98c-> Hits: 9201, Late: 0, Early: 0, Misses: 0
98f-> Hits: 30333, Late: 2021, Early: 0, Misses: 0
991-> Hits: 5583, Late: 12592, Early: 0, Misses: 0
993-> Hits: 36350, Late: 0, Early: 0, Misses: 0
994-> Hits: 33951, Late: 192, Early: 0, Misses: 52
999-> Hits: 559, Late: 17616, Early: 0, Misses: 0
99a-> Hits: 15817, Late: 0, Early: 0, Misses: 0
99b-> Hits: 18174, Late: 0, Early: 0, Misses: 0
99c-> Hits: 36195, Late: 0, Early: 0, Misses: 0
99e-> Hits: 1075, Late: 0, Early: 0, Misses: 0
99f-> Hits: 8124, Late: 10051, Early: 0, Misses: 0
9a4-> Hits: 9798, Late: 0, Early: 0, Misses: 0
9a5-> Hits: 44618, Late: 0, Early: 0, Misses: 0
9a6-> Hits: 7204, Late: 14382, Early: 0, Misses: 0
9a7-> Hits: 8935, Late: 0, Early: 0, Misses: 0
9a8-> Hits: 9088, Late: 0, Early: 0, Misses: 0
9a9-> Hits: 9883, Late: 1734, Early: 0, Misses: 0
9aa-> Hits: 1261, Late: 3, Early: 0, Misses: 0
9af-> Hits: 35707, Late: 0, Early: 0, Misses: 0
9b1-> Hits: 18174, Late: 0, Early: 0, Misses: 0
9b2-> Hits: 8078, Late: 0, Early: 0, Misses: 0
9b4-> Hits: 5550, Late: 2174, Early: 0, Misses: 0
9b9-> Hits: 13243, Late: 1124, Early: 0, Misses: 0
9ba-> Hits: 23901, Late: 11985, Early: 0, Misses: 0
9bc-> Hits: 18175, Late: 0, Early: 0, Misses: 0
9be-> Hits: 12677, Late: 5498, Early: 0, Misses: 0
9bf-> Hits: 11199, Late: 3110, Early: 0, Misses: 0
9c0-> Hits: 1652, Late: 5, Early: 0, Misses: 2
9c4-> Hits: 1798, Late: 16377, Early: 0, Misses: 0
9c8-> Hits: 17442, Late: 0, Early: 0, Misses: 0
9c9-> Hits: 2704, Late: 0, Early: 0, Misses: 0
9ca-> Hits: 28860, Late: 0, Early: 0, Misses: 0
9cd-> Hits: 17490, Late: 0, Early: 0, Misses: 0
9ce-> Hits: 25009, Late: 11341, Early: 0, Misses: 0
9d2-> Hits: 5695, Late: 0, Early: 0, Misses: 0
9d5-> Hits: 18175, Late: 0, Early: 0, Misses: 0
9d6-> Hits: 18173, Late: 0, Early: 0, Misses: 0
9da-> Hits: 1941, Late: 16234, Early: 0, Misses: 0
9df-> Hits: 25948, Late: 2309, Early: 0, Misses: 0
9e2-> Hits: 17917, Late: 0, Early: 0, Misses: 0
9e5-> Hits: 7027, Late: 0, Early: 0, Misses: 0
9ea-> Hits: 11047, Late: 17323, Early: 0, Misses: 0
9eb-> Hits: 36270, Late: 0, Early: 0, Misses: 0
9ec-> Hits: 10254, Late: 0, Early: 0, Misses: 0
9ef-> Hits: 18852, Late: 14092, Early: 0, Misses: 0
9f0-> Hits: 18175, Late: 0, Early: 0, Misses: 0
9f4-> Hits: 13177, Late: 2870, Early: 0, Misses: 0
9f5-> Hits: 14160, Late: 16, Early: 0, Misses: 0
9fa-> Hits: 17942, Late: 0, Early: 0, Misses: 0
9fb-> Hits: 18123, Late: 0, Early: 0, Misses: 0
9fd-> Hits: 1407, Late: 16768, Early: 0, Misses: 0
9fe-> Hits: 10074, Late: 0, Early: 0, Misses: 0
a01-> Hits: 11264, Late: 0, Early: 0, Misses: 0
a02-> Hits: 18029, Late: 0, Early: 0, Misses: 0
a03-> Hits: 5709, Late: 12466, Early: 0, Misses: 0
a05-> Hits: 15373, Late: 0, Early: 0, Misses: 0
a08-> Hits: 25458, Late: 2804, Early: 0, Misses: 0
a0a-> Hits: 9536, Late: 1683, Early: 0, Misses: 0
a0b-> Hits: 18113, Late: 57, Early: 0, Misses: 5
a0f-> Hits: 9795, Late: 0, Early: 0, Misses: 0
a12-> Hits: 18175, Late: 0, Early: 0, Misses: 0
a13-> Hits: 2564, Late: 0, Early: 0, Misses: 0
a17-> Hits: 6114, Late: 12061, Early: 0, Misses: 0
a18-> Hits: 18175, Late: 0, Early: 0, Misses: 0
a1a-> Hits: 3113, Late: 0, Early: 0, Misses: 0
a1b-> Hits: 23072, Late: 13278, Early: 0, Misses: 0
a1c-> Hits: 7720, Late: 3234, Early: 0, Misses: 0
a20-> Hits: 7688, Late: 2388, Early: 0, Misses: 0
a21-> Hits: 1682, Late: 1, Early: 0, Misses: 0
a2a-> Hits: 35831, Late: 0, Early: 0, Misses: 0
a2c-> Hits: 16429, Late: 0, Early: 0, Misses: 0
a2d-> Hits: 18175, Late: 0, Early: 0, Misses: 0
a32-> Hits: 4804, Late: 13371, Early: 0, Misses: 0
a33-> Hits: 18174, Late: 1, Early: 0, Misses: 0
a37-> Hits: 21706, Late: 0, Early: 0, Misses: 0
a3b-> Hits: 4843, Late: 0, Early: 0, Misses: 0
a3c-> Hits: 26530, Late: 2628, Early: 0, Misses: 0
a3f-> Hits: 17917, Late: 0, Early: 0, Misses: 0
a40-> Hits: 0, Late: 18175, Early: 0, Misses: 0
a41-> Hits: 18175, Late: 0, Early: 0, Misses: 0
a45-> Hits: 18175, Late: 0, Early: 0, Misses: 0
a46-> Hits: 1308, Late: 0, Early: 0, Misses: 0
a48-> Hits: 17816, Late: 0, Early: 0, Misses: 0
a4d-> Hits: 7671, Late: 0, Early: 0, Misses: 0
a4e-> Hits: 26561, Late: 20279, Early: 0, Misses: 0
a52-> Hits: 18175, Late: 0, Early: 0, Misses: 0
a55-> Hits: 26634, Late: 1113, Early: 0, Misses: 0
a5a-> Hits: 1333, Late: 16842, Early: 0, Misses: 0
a5b-> Hits: 17866, Late: 0, Early: 0, Misses: 0
a5e-> Hits: 17710, Late: 0, Early: 0, Misses: 0
a5f-> Hits: 4780, Late: 13395, Early: 0, Misses: 0
a61-> Hits: 63, Late: 18112, Early: 0, Misses: 0
a63-> Hits: 5977, Late: 13, Early: 0, Misses: 0
a68-> Hits: 25813, Late: 0, Early: 0, Misses: 0
a69-> Hits: 14149, Late: 0, Early: 0, Misses: 0
a6e-> Hits: 8067, Late: 10108, Early: 0, Misses: 0
a6f-> Hits: 636, Late: 17539, Early: 0, Misses: 0
a70-> Hits: 14956, Late: 0, Early: 0, Misses: 0
a73-> Hits: 9805, Late: 0, Early: 0, Misses: 0
a76-> Hits: 8719, Late: 0, Early: 0, Misses: 0
a78-> Hits: 8459, Late: 1901, Early: 0, Misses: 0
a79-> Hits: 3322, Late: 6, Early: 0, Misses: 0
a7a-> Hits: 10532, Late: 0, Early: 0, Misses: 0
a80-> Hits: 1, Late: 0, Early: 0, Misses: 0
a81-> Hits: 5386, Late: 12789, Early: 0, Misses: 0
a82-> Hits: 548, Late: 2341, Early: 0, Misses: 0
a83-> Hits: 18175, Late: 0, Early: 0, Misses: 0
a87-> Hits: 11086, Late: 3336, Early: 0, Misses: 0
a88-> Hits: 1, Late: 0, Early: 0, Misses: 0
a89-> Hits: 10747, Late: 0, Early: 0, Misses: 0
a8e-> Hits: 41340, Late: 1979, Early: 0, Misses: 0
a8f-> Hits: 18175, Late: 0, Early: 0, Misses: 0
a90-> Hits: 8988, Late: 0, Early: 0, Misses: 0
a93-> Hits: 18175, Late: 0, Early: 0, Misses: 0
a96-> Hits: 1, Late: 0, Early: 0, Misses: 0
a99-> Hits: 18175, Late: 0, Early: 0, Misses: 0
a9a-> Hits: 13695, Late: 0, Early: 0, Misses: 0
a9e-> Hits: 1, Late: 0, Early: 0, Misses: 0
a9f-> Hits: 17746, Late: 0, Early: 0, Misses: 0
aa2-> Hits: 7102, Late: 11073, Early: 0, Misses: 0
aa5-> Hits: 36350, Late: 0, Early: 0, Misses: 0
aa7-> Hits: 11066, Late: 5571, Early: 0, Misses: 0
aa8-> Hits: 1080, Late: 0, Early: 0, Misses: 0
aac-> Hits: 33126, Late: 1387, Early: 0, Misses: 0
ab2-> Hits: 10403, Late: 13431, Early: 0, Misses: 0
ab5-> Hits: 8473, Late: 0, Early: 0, Misses: 0
ab7-> Hits: 1, Late: 0, Early: 0, Misses: 0
ab8-> Hits: 13360, Late: 3011, Early: 0, Misses: 0
abb-> Hits: 21193, Late: 15157, Early: 0, Misses: 0
abe-> Hits: 18175, Late: 0, Early: 0, Misses: 0
abf-> Hits: 11712, Late: 0, Early: 0, Misses: 0
ac0-> Hits: 16782, Late: 0, Early: 0, Misses: 0
ac2-> Hits: 26052, Late: 0, Early: 0, Misses: 0
ac7-> Hits: 35222, Late: 13916, Early: 0, Misses: 0
ac8-> Hits: 4282, Late: 0, Early: 0, Misses: 0
acc-> Hits: 17449, Late: 5366, Early: 0, Misses: 0
acd-> Hits: 18175, Late: 0, Early: 0, Misses: 0
ace-> Hits: 18175, Late: 0, Early: 0, Misses: 0
ad3-> Hits: 2964, Late: 0, Early: 0, Misses: 0
ad4-> Hits: 18175, Late: 0, Early: 0, Misses: 0
ad5-> Hits: 18175, Late: 0, Early: 0, Misses: 0
ad6-> Hits: 17738, Late: 0, Early: 0, Misses: 0
ad7-> Hits: 5508, Late: 12668, Early: 0, Misses: 0
adb-> Hits: 12968, Late: 2369, Early: 0, Misses: 0
adc-> Hits: 12764, Late: 0, Early: 0, Misses: 0
add-> Hits: 23401, Late: 3385, Early: 0, Misses: 0
ade-> Hits: 23291, Late: 0, Early: 0, Misses: 0
ae0-> Hits: 18282, Late: 0, Early: 0, Misses: 2
ae5-> Hits: 18121, Late: 0, Early: 0, Misses: 0
ae8-> Hits: 66, Late: 0, Early: 0, Misses: 0
aea-> Hits: 18175, Late: 0, Early: 0, Misses: 0
aeb-> Hits: 13113, Late: 0, Early: 0, Misses: 0
af0-> Hits: 18934, Late: 14898, Early: 0, Misses: 2518
af4-> Hits: 33820, Late: 0, Early: 0, Misses: 0
af6-> Hits: 30043, Late: 0, Early: 0, Misses: 0
af7-> Hits: 10373, Late: 0, Early: 0, Misses: 0
af8-> Hits: 8778, Late: 0, Early: 0, Misses: 0
afc-> Hits: 13757, Late: 537, Early: 0, Misses: 0
afd-> Hits: 0, Late: 18175, Early: 0, Misses: 0
afe-> Hits: 38, Late: 0, Early: 0, Misses: 0
aff-> Hits: 14810, Late: 0, Early: 0, Misses: 0
b01-> Hits: 22339, Late: 1609, Early: 0, Misses: 0
b02-> Hits: 3021, Late: 0, Early: 0, Misses: 0
b06-> Hits: 15303, Late: 0, Early: 0, Misses: 2
b07-> Hits: 14570, Late: 2042, Early: 0, Misses: 0
b0a-> Hits: 35832, Late: 18169, Early: 0, Misses: 0
b0c-> Hits: 17355, Late: 0, Early: 0, Misses: 0
b0f-> Hits: 110, Late: 0, Early: 0, Misses: 0
b10-> Hits: 18175, Late: 0, Early: 0, Misses: 0
b16-> Hits: 16839, Late: 1286, Early: 0, Misses: 0
b17-> Hits: 18175, Late: 0, Early: 0, Misses: 0
b19-> Hits: 18175, Late: 0, Early: 0, Misses: 0
b1a-> Hits: 8, Late: 18167, Early: 0, Misses: 0
b1d-> Hits: 16066, Late: 2108, Early: 0, Misses: 0
b24-> Hits: 2186, Late: 18175, Early: 0, Misses: 0
b25-> Hits: 15336, Late: 0, Early: 0, Misses: 0
b26-> Hits: 18175, Late: 0, Early: 0, Misses: 0
b28-> Hits: 36, Late: 18139, Early: 0, Misses: 0
b29-> Hits: 16140, Late: 0, Early: 0, Misses: 2035
b2d-> Hits: 18175, Late: 0, Early: 0, Misses: 0
b2e-> Hits: 1032, Late: 1764, Early: 0, Misses: 0
b30-> Hits: 17938, Late: 0, Early: 0, Misses: 126
b31-> Hits: 304, Late: 17871, Early: 0, Misses: 0
b32-> Hits: 18175, Late: 0, Early: 0, Misses: 0
b34-> Hits: 18121, Late: 0, Early: 0, Misses: 0
b35-> Hits: 18071, Late: 0, Early: 0, Misses: 0
b38-> Hits: 17480, Late: 0, Early: 0, Misses: 0
b3b-> Hits: 1872, Late: 4915, Early: 0, Misses: 0
b3f-> Hits: 17611, Late: 0, Early: 0, Misses: 0
b40-> Hits: 89, Late: 18086, Early: 0, Misses: 0
b41-> Hits: 18175, Late: 0, Early: 0, Misses: 0
b44-> Hits: 262, Late: 0, Early: 0, Misses: 2
b45-> Hits: 23408, Late: 5132, Early: 0, Misses: 0
b4c-> Hits: 10745, Late: 18174, Early: 0, Misses: 0
b4e-> Hits: 18175, Late: 0, Early: 0, Misses: 0
b55-> Hits: 2154, Late: 227, Early: 0, Misses: 0
b57-> Hits: 1410, Late: 2381, Early: 0, Misses: 0
b5b-> Hits: 4, Late: 18170, Early: 0, Misses: 0
b5c-> Hits: 18121, Late: 0, Early: 0, Misses: 0
b5e-> Hits: 12509, Late: 0, Early: 0, Misses: 0
b5f-> Hits: 17762, Late: 0, Early: 0, Misses: 0
b63-> Hits: 14461, Late: 1977, Early: 0, Misses: 0
b69-> Hits: 18175, Late: 0, Early: 0, Misses: 0
b6a-> Hits: 30743, Late: 5476, Early: 0, Misses: 130
b6b-> Hits: 13561, Late: 0, Early: 0, Misses: 0
b6c-> Hits: 455, Late: 6366, Early: 0, Misses: 11354
b6d-> Hits: 18175, Late: 0, Early: 0, Misses: 0
b72-> Hits: 15246, Late: 18174, Early: 0, Misses: 0
b75-> Hits: 8923, Late: 5455, Early: 0, Misses: 1192
b76-> Hits: 34197, Late: 0, Early: 0, Misses: 0
b7b-> Hits: 15944, Late: 1224, Early: 0, Misses: 0
b7f-> Hits: 18175, Late: 0, Early: 0, Misses: 0
b81-> Hits: 13773, Late: 0, Early: 0, Misses: 3
b82-> Hits: 20109, Late: 728, Early: 0, Misses: 81
b85-> Hits: 18175, Late: 0, Early: 0, Misses: 0
b89-> Hits: 0, Late: 18174, Early: 0, Misses: 0
b8a-> Hits: 18175, Late: 0, Early: 0, Misses: 0
b8b-> Hits: 19372, Late: 16978, Early: 0, Misses: 0
b8e-> Hits: 17917, Late: 0, Early: 0, Misses: 0
b92-> Hits: 17604, Late: 0, Early: 0, Misses: 0
b96-> Hits: 17913, Late: 0, Early: 0, Misses: 0
b97-> Hits: 11704, Late: 2021, Early: 0, Misses: 0
b98-> Hits: 899, Late: 0, Early: 0, Misses: 2
b9c-> Hits: 31367, Late: 2261, Early: 0, Misses: 0
b9d-> Hits: 3010, Late: 2938, Early: 0, Misses: 1441
b9e-> Hits: 18175, Late: 0, Early: 0, Misses: 0
ba0-> Hits: 18021, Late: 18174, Early: 0, Misses: 0
ba3-> Hits: 27508, Late: 2355, Early: 0, Misses: 0
ba8-> Hits: 18175, Late: 0, Early: 0, Misses: 0
ba9-> Hits: 18175, Late: 0, Early: 0, Misses: 0
bac-> Hits: 2373, Late: 2746, Early: 0, Misses: 140
bad-> Hits: 18175, Late: 0, Early: 0, Misses: 0
baf-> Hits: 23754, Late: 0, Early: 0, Misses: 2
bb5-> Hits: 16598, Late: 0, Early: 0, Misses: 0
bb7-> Hits: 0, Late: 18174, Early: 0, Misses: 0
bb8-> Hits: 1979, Late: 16145, Early: 0, Misses: 0
bbf-> Hits: 2572, Late: 0, Early: 0, Misses: 0
bc1-> Hits: 35943, Late: 0, Early: 0, Misses: 0
bc4-> Hits: 13995, Late: 500, Early: 0, Misses: 0
bc6-> Hits: 18038, Late: 0, Early: 0, Misses: 136
bc9-> Hits: 6693, Late: 0, Early: 0, Misses: 0
bca-> Hits: 45616, Late: 0, Early: 0, Misses: 0
bce-> Hits: 8288, Late: 21606, Early: 0, Misses: 0
bd1-> Hits: 14217, Late: 1517, Early: 0, Misses: 0
bd6-> Hits: 44728, Late: 2324, Early: 0, Misses: 0
bdd-> Hits: 26611, Late: 0, Early: 0, Misses: 1
bdf-> Hits: 17816, Late: 0, Early: 0, Misses: 0
be5-> Hits: 16584, Late: 19627, Early: 0, Misses: 0
be6-> Hits: 18175, Late: 0, Early: 0, Misses: 0
be7-> Hits: 18175, Late: 0, Early: 0, Misses: 0
be9-> Hits: 1299, Late: 0, Early: 0, Misses: 0
bec-> Hits: 28683, Late: 4432, Early: 0, Misses: 0
bf0-> Hits: 11876, Late: 0, Early: 0, Misses: 0
bf2-> Hits: 16463, Late: 0, Early: 0, Misses: 0
bf3-> Hits: 0, Late: 18175, Early: 0, Misses: 0
bf4-> Hits: 1140, Late: 0, Early: 0, Misses: 3
bf9-> Hits: 17661, Late: 0, Early: 0, Misses: 0
bfa-> Hits: 12387, Late: 2126, Early: 0, Misses: 0
bfb-> Hits: 17916, Late: 0, Early: 0, Misses: 0
bfc-> Hits: 18175, Late: 18174, Early: 0, Misses: 0
bfe-> Hits: 1114, Late: 1638, Early: 0, Misses: 0
c02-> Hits: 18207, Late: 16510, Early: 0, Misses: 0
c08-> Hits: 1593, Late: 16582, Early: 0, Misses: 0
c09-> Hits: 9716, Late: 2393, Early: 0, Misses: 0
c0b-> Hits: 1574, Late: 0, Early: 0, Misses: 3
c0e-> Hits: 34496, Late: 0, Early: 0, Misses: 0
c0f-> Hits: 18175, Late: 0, Early: 0, Misses: 0
c13-> Hits: 0, Late: 18174, Early: 0, Misses: 0
c14-> Hits: 18033, Late: 0, Early: 0, Misses: 0
c19-> Hits: 23968, Late: 2254, Early: 0, Misses: 0
c1e-> Hits: 13059, Late: 521, Early: 0, Misses: 0
c20-> Hits: 18239, Late: 18111, Early: 0, Misses: 0
c22-> Hits: 34069, Late: 0, Early: 0, Misses: 101
c23-> Hits: 18121, Late: 0, Early: 0, Misses: 0
c24-> Hits: 461, Late: 0, Early: 0, Misses: 0
c25-> Hits: 5713, Late: 5164, Early: 0, Misses: 0
c29-> Hits: 2022, Late: 16153, Early: 0, Misses: 0
c2a-> Hits: 0, Late: 18174, Early: 0, Misses: 0
c2b-> Hits: 16182, Late: 0, Early: 0, Misses: 0
c2c-> Hits: 18175, Late: 0, Early: 0, Misses: 0
c2e-> Hits: 5087, Late: 13088, Early: 0, Misses: 0
c30-> Hits: 2061, Late: 190, Early: 0, Misses: 0
c38-> Hits: 18175, Late: 0, Early: 0, Misses: 0
c39-> Hits: 1, Late: 18173, Early: 0, Misses: 0
c3b-> Hits: 5109, Late: 2498, Early: 0, Misses: 0
c3c-> Hits: 18175, Late: 0, Early: 0, Misses: 0
c41-> Hits: 18175, Late: 0, Early: 0, Misses: 0
c45-> Hits: 28819, Late: 0, Early: 0, Misses: 0
c48-> Hits: 0, Late: 18174, Early: 0, Misses: 0
c49-> Hits: 18175, Late: 0, Early: 0, Misses: 0
c4a-> Hits: 18659, Late: 17637, Early: 0, Misses: 0
c4b-> Hits: 18175, Late: 0, Early: 0, Misses: 0
c4f-> Hits: 12154, Late: 2506, Early: 0, Misses: 0
c53-> Hits: 9145, Late: 0, Early: 0, Misses: 0
c55-> Hits: 18786, Late: 17564, Early: 0, Misses: 0
c57-> Hits: 6, Late: 18168, Early: 0, Misses: 0
c5b-> Hits: 12786, Late: 3121, Early: 0, Misses: 0
c5c-> Hits: 18125, Late: 0, Early: 0, Misses: 0
c5e-> Hits: 17817, Late: 0, Early: 0, Misses: 0
c65-> Hits: 10543, Late: 0, Early: 0, Misses: 0
c66-> Hits: 119, Late: 18055, Early: 0, Misses: 0
c67-> Hits: 18175, Late: 0, Early: 0, Misses: 0
c6b-> Hits: 17866, Late: 0, Early: 0, Misses: 0
c6c-> Hits: 349, Late: 17825, Early: 0, Misses: 0
c6d-> Hits: 24760, Late: 11590, Early: 0, Misses: 0
c70-> Hits: 18175, Late: 0, Early: 0, Misses: 0
c72-> Hits: 10694, Late: 2387, Early: 0, Misses: 0
c74-> Hits: 18175, Late: 0, Early: 0, Misses: 0
c7c-> Hits: 18175, Late: 0, Early: 0, Misses: 0
[...]
ca2-> Hits: 18174, Late: 0, Early: 0, Misses: 0
ca4-> Hits: 18175, Late: 0, Early: 0, Misses: 0
ca7-> Hits: 18131, Late: 0, Early: 0, Misses: 0
cac-> Hits: 17902, Late: 0, Early: 0, Misses: 272
caf-> Hits: 8700, Late: 1052, Early: 0, Misses: 0
cb1-> Hits: 17916, Late: 0, Early: 0, Misses: 0
cb4-> Hits: 6820, Late: 18130, Early: 0, Misses: 8
cb8-> Hits: 18175, Late: 0, Early: 0, Misses: 0
cb9-> Hits: 14990, Late: 0, Early: 0, Misses: 0
cba-> Hits: 17925, Late: 0, Early: 0, Misses: 236
cbc-> Hits: 3035, Late: 15140, Early: 0, Misses: 0
cbd-> Hits: 14867, Late: 0, Early: 0, Misses: 0
cc1-> Hits: 6406, Late: 0, Early: 0, Misses: 0
cc2-> Hits: 36, Late: 16401, Early: 0, Misses: 1737
cc6-> Hits: 23595, Late: 12755, Early: 0, Misses: 0
cc7-> Hits: 18175, Late: 0, Early: 0, Misses: 0
cc9-> Hits: 9452, Late: 0, Early: 0, Misses: 0
ccf-> Hits: 16140, Late: 0, Early: 0, Misses: 0
cd1-> Hits: 11438, Late: 0, Early: 0, Misses: 2
cd3-> Hits: 12712, Late: 0, Early: 0, Misses: 0
cd4-> Hits: 25755, Late: 10595, Early: 0, Misses: 0
cd8-> Hits: 9342, Late: 4105, Early: 0, Misses: 0
cd9-> Hits: 2623, Late: 18174, Early: 0, Misses: 0
cdc-> Hits: 18175, Late: 0, Early: 0, Misses: 0
cdd-> Hits: 17347, Late: 0, Early: 0, Misses: 0
cde-> Hits: 8045, Late: 1804, Early: 0, Misses: 0
ce5-> Hits: 16677, Late: 0, Early: 0, Misses: 0
ce7-> Hits: 4213, Late: 0, Early: 0, Misses: 0
cea-> Hits: 18175, Late: 0, Early: 0, Misses: 0
cec-> Hits: 16578, Late: 0, Early: 0, Misses: 0
cef-> Hits: 5504, Late: 12671, Early: 0, Misses: 0
cf1-> Hits: 12135, Late: 0, Early: 0, Misses: 0
cf4-> Hits: 22418, Late: 6019, Early: 0, Misses: 0
cf7-> Hits: 5706, Late: 0, Early: 0, Misses: 90
cfa-> Hits: 16907, Late: 0, Early: 0, Misses: 0
cff-> Hits: 36472, Late: 9412, Early: 0, Misses: 8640
d02-> Hits: 12052, Late: 2042, Early: 0, Misses: 0
d05-> Hits: 14632, Late: 0, Early: 0, Misses: 0
d07-> Hits: 19122, Late: 0, Early: 0, Misses: 0
d08-> Hits: 17757, Late: 0, Early: 0, Misses: 0
d0c-> Hits: 1430, Late: 16745, Early: 0, Misses: 0
d0e-> Hits: 15096, Late: 0, Early: 0, Misses: 122
d0f-> Hits: 6063, Late: 12112, Early: 0, Misses: 0
d11-> Hits: 12961, Late: 0, Early: 0, Misses: 0
d14-> Hits: 28616, Late: 2369, Early: 0, Misses: 0
d15-> Hits: 18175, Late: 0, Early: 0, Misses: 0
d16-> Hits: 74, Late: 3937, Early: 0, Misses: 14163
d19-> Hits: 3927, Late: 14248, Early: 0, Misses: 0
d1e-> Hits: 36245, Late: 0, Early: 0, Misses: 0
d1f-> Hits: 9504, Late: 0, Early: 0, Misses: 0
d22-> Hits: 17895, Late: 0, Early: 0, Misses: 0
d24-> Hits: 5695, Late: 12480, Early: 0, Misses: 0
d27-> Hits: 4959, Late: 2223, Early: 0, Misses: 0
d29-> Hits: 12341, Late: 2762, Early: 0, Misses: 4
d2b-> Hits: 18175, Late: 0, Early: 0, Misses: 0
d2c-> Hits: 12309, Late: 922, Early: 0, Misses: 0
d2d-> Hits: 17911, Late: 0, Early: 0, Misses: 0
d2f-> Hits: 17602, Late: 0, Early: 0, Misses: 0
d30-> Hits: 17764, Late: 0, Early: 0, Misses: 0
d31-> Hits: 166, Late: 706, Early: 0, Misses: 17302
d32-> Hits: 951, Late: 0, Early: 0, Misses: 0
d33-> Hits: 8539, Late: 0, Early: 0, Misses: 0
d34-> Hits: 18175, Late: 0, Early: 0, Misses: 0
d37-> Hits: 19909, Late: 16441, Early: 0, Misses: 0
d38-> Hits: 7798, Late: 10377, Early: 0, Misses: 0
d3c-> Hits: 673, Late: 0, Early: 0, Misses: 0
d3d-> Hits: 7809, Late: 2634, Early: 0, Misses: 0
d40-> Hits: 18071, Late: 0, Early: 0, Misses: 0
d41-> Hits: 22719, Late: 12637, Early: 0, Misses: 0
d43-> Hits: 12423, Late: 0, Early: 0, Misses: 10
d48-> Hits: 10764, Late: 0, Early: 0, Misses: 0
d49-> Hits: 18175, Late: 0, Early: 0, Misses: 0
d4a-> Hits: 18175, Late: 0, Early: 0, Misses: 0
d4b-> Hits: 311, Late: 157, Early: 0, Misses: 17706
d4d-> Hits: 18175, Late: 0, Early: 0, Misses: 0
d50-> Hits: 5812, Late: 12363, Early: 0, Misses: 0
d52-> Hits: 12007, Late: 0, Early: 0, Misses: 0
d53-> Hits: 18175, Late: 0, Early: 0, Misses: 0
d55-> Hits: 5831, Late: 3484, Early: 0, Misses: 0
d56-> Hits: 16466, Late: 0, Early: 0, Misses: 0
d5c-> Hits: 18175, Late: 0, Early: 0, Misses: 0
d5e-> Hits: 18175, Late: 0, Early: 0, Misses: 0
d63-> Hits: 18639, Late: 0, Early: 0, Misses: 0
d64-> Hits: 23940, Late: 0, Early: 0, Misses: 187
d65-> Hits: 12184, Late: 0, Early: 0, Misses: 0
d68-> Hits: 18174, Late: 1, Early: 0, Misses: 0
d69-> Hits: 402, Late: 17773, Early: 0, Misses: 0
d6c-> Hits: 18175, Late: 0, Early: 0, Misses: 0
d6d-> Hits: 18175, Late: 0, Early: 0, Misses: 0
d6e-> Hits: 11360, Late: 2548, Early: 0, Misses: 0
d6f-> Hits: 158, Late: 0, Early: 0, Misses: 1
d70-> Hits: 18071, Late: 18175, Early: 0, Misses: 0
d74-> Hits: 6900, Late: 0, Early: 0, Misses: 0
d76-> Hits: 11683, Late: 0, Early: 0, Misses: 0
d79-> Hits: 18175, Late: 0, Early: 0, Misses: 0
d7b-> Hits: 18175, Late: 0, Early: 0, Misses: 0
d7c-> Hits: 1395, Late: 16780, Early: 0, Misses: 0
d7e-> Hits: 23, Late: 17992, Early: 0, Misses: 0
d82-> Hits: 36350, Late: 0, Early: 0, Misses: 0
d87-> Hits: 16987, Late: 0, Early: 0, Misses: 0
d8a-> Hits: 9840, Late: 1679, Early: 0, Misses: 0
d8e-> Hits: 7, Late: 17359, Early: 0, Misses: 809
d8f-> Hits: 19818, Late: 0, Early: 0, Misses: 0
d94-> Hits: 38929, Late: 0, Early: 0, Misses: 0
d98-> Hits: 18175, Late: 0, Early: 0, Misses: 0
d9c-> Hits: 22892, Late: 31220, Early: 0, Misses: 0
d9d-> Hits: 17659, Late: 0, Early: 0, Misses: 0
da1-> Hits: 27975, Late: 2612, Early: 0, Misses: 0
da5-> Hits: 17663, Late: 0, Early: 0, Misses: 0
da7-> Hits: 399, Late: 17776, Early: 0, Misses: 0
dab-> Hits: 18175, Late: 0, Early: 0, Misses: 0
daf-> Hits: 3523, Late: 0, Early: 0, Misses: 0
db2-> Hits: 19054, Late: 4438, Early: 0, Misses: 95
db3-> Hits: 4867, Late: 13308, Early: 0, Misses: 0
db4-> Hits: 9139, Late: 0, Early: 0, Misses: 0
db8-> Hits: 9995, Late: 0, Early: 0, Misses: 0
dbd-> Hits: 27464, Late: 2613, Early: 0, Misses: 0
dcb-> Hits: 31353, Late: 0, Early: 0, Misses: 0
dcd-> Hits: 6915, Late: 2566, Early: 0, Misses: 0
dcf-> Hits: 14305, Late: 2396, Early: 0, Misses: 0
dd4-> Hits: 11952, Late: 0, Early: 0, Misses: 0
dd6-> Hits: 4510, Late: 0, Early: 0, Misses: 0
dd8-> Hits: 18071, Late: 0, Early: 0, Misses: 0
dd9-> Hits: 13380, Late: 2099, Early: 0, Misses: 0
ddc-> Hits: 7993, Late: 0, Early: 0, Misses: 0
dde-> Hits: 29615, Late: 1331, Early: 0, Misses: 0
de3-> Hits: 1411, Late: 16764, Early: 0, Misses: 0
de5-> Hits: 17195, Late: 0, Early: 0, Misses: 0
de8-> Hits: 7492, Late: 0, Early: 0, Misses: 0
de9-> Hits: 17194, Late: 0, Early: 0, Misses: 0
dea-> Hits: 17971, Late: 0, Early: 0, Misses: 0
dec-> Hits: 11050, Late: 0, Early: 0, Misses: 75
ded-> Hits: 4345, Late: 13830, Early: 0, Misses: 0
df2-> Hits: 22706, Late: 2543, Early: 0, Misses: 0
df6-> Hits: 31951, Late: 0, Early: 0, Misses: 0
df7-> Hits: 15728, Late: 1212, Early: 0, Misses: 0
dfb-> Hits: 21776, Late: 9977, Early: 0, Misses: 0
e00-> Hits: 1855, Late: 0, Early: 0, Misses: 0
e05-> Hits: 6850, Late: 1904, Early: 0, Misses: 0
e06-> Hits: 1718, Late: 16457, Early: 0, Misses: 0
e0a-> Hits: 18175, Late: 0, Early: 0, Misses: 0
e0d-> Hits: 16921, Late: 0, Early: 0, Misses: 0
e0e-> Hits: 8240, Late: 0, Early: 0, Misses: 0
e0f-> Hits: 6192, Late: 0, Early: 0, Misses: 0
e12-> Hits: 11456, Late: 2137, Early: 0, Misses: 0
e13-> Hits: 18175, Late: 0, Early: 0, Misses: 0
e16-> Hits: 5994, Late: 12181, Early: 0, Misses: 0
e17-> Hits: 18175, Late: 0, Early: 0, Misses: 0
e18-> Hits: 12878, Late: 2175, Early: 0, Misses: 0
e1b-> Hits: 29185, Late: 3531, Early: 0, Misses: 0
e1f-> Hits: 1560, Late: 0, Early: 0, Misses: 0
e22-> Hits: 18175, Late: 0, Early: 0, Misses: 0
e26-> Hits: 18075, Late: 0, Early: 0, Misses: 0
e27-> Hits: 13497, Late: 2315, Early: 0, Misses: 0
e2a-> Hits: 17347, Late: 0, Early: 0, Misses: 0
e2d-> Hits: 18175, Late: 0, Early: 0, Misses: 0
e2e-> Hits: 4007, Late: 0, Early: 0, Misses: 0
e33-> Hits: 11249, Late: 0, Early: 0, Misses: 0
e35-> Hits: 18121, Late: 0, Early: 0, Misses: 0
e36-> Hits: 43416, Late: 11076, Early: 0, Misses: 31
e3b-> Hits: 5251, Late: 2379, Early: 0, Misses: 0
e3d-> Hits: 33462, Late: 21063, Early: 0, Misses: 0
e3e-> Hits: 30825, Late: 1, Early: 0, Misses: 5523
e40-> Hits: 35574, Late: 0, Early: 0, Misses: 0
e44-> Hits: 2914, Late: 0, Early: 0, Misses: 0
e45-> Hits: 30799, Late: 5551, Early: 0, Misses: 0
e46-> Hits: 9445, Late: 0, Early: 0, Misses: 0
e47-> Hits: 16210, Late: 0, Early: 0, Misses: 0
e49-> Hits: 13813, Late: 538, Early: 0, Misses: 0
e4b-> Hits: 6854, Late: 11321, Early: 0, Misses: 0
e4d-> Hits: 27287, Late: 1, Early: 0, Misses: 0
e4f-> Hits: 4893, Late: 0, Early: 0, Misses: 0
e50-> Hits: 11552, Late: 2932, Early: 0, Misses: 0
e54-> Hits: 34806, Late: 0, Early: 0, Misses: 0
e57-> Hits: 14514, Late: 1441, Early: 0, Misses: 0
e5a-> Hits: 9209, Late: 0, Early: 0, Misses: 0
e5c-> Hits: 14348, Late: 2119, Early: 0, Misses: 0
e5d-> Hits: 14890, Late: 0, Early: 0, Misses: 0
e5f-> Hits: 7074, Late: 11101, Early: 0, Misses: 0
e64-> Hits: 8295, Late: 3121, Early: 0, Misses: 0
e66-> Hits: 2831, Late: 0, Early: 0, Misses: 0
e6b-> Hits: 34821, Late: 1394, Early: 0, Misses: 0
e6e-> Hits: 34698, Late: 1652, Early: 0, Misses: 0
e6f-> Hits: 28387, Late: 0, Early: 0, Misses: 0
e72-> Hits: 16104, Late: 2031, Early: 0, Misses: 0
e77-> Hits: 6784, Late: 11391, Early: 0, Misses: 0
e79-> Hits: 0, Late: 18175, Early: 0, Misses: 0
e7c-> Hits: 9727, Late: 3237, Early: 0, Misses: 0
e83-> Hits: 1186, Late: 1673, Early: 0, Misses: 0
e86-> Hits: 3154, Late: 0, Early: 0, Misses: 0
e8d-> Hits: 28595, Late: 2350, Early: 0, Misses: 8
e8f-> Hits: 33478, Late: 1, Early: 0, Misses: 2871
e97-> Hits: 1355, Late: 16820, Early: 0, Misses: 0
e99-> Hits: 18175, Late: 0, Early: 0, Misses: 0
e9c-> Hits: 0, Late: 18175, Early: 0, Misses: 0
ea0-> Hits: 17967, Late: 0, Early: 0, Misses: 0
ea3-> Hits: 85, Late: 18090, Early: 0, Misses: 0
ea8-> Hits: 5952, Late: 4737, Early: 0, Misses: 0
ea9-> Hits: 18175, Late: 0, Early: 0, Misses: 0
eab-> Hits: 15138, Late: 0, Early: 0, Misses: 0
eaf-> Hits: 36, Late: 18139, Early: 0, Misses: 0
eb8-> Hits: 2267, Late: 405, Early: 0, Misses: 0
ebc-> Hits: 18502, Late: 17848, Early: 0, Misses: 0
ebd-> Hits: 36350, Late: 0, Early: 0, Misses: 0
ebe-> Hits: 18175, Late: 0, Early: 0, Misses: 0
ec2-> Hits: 6809, Late: 2461, Early: 0, Misses: 35
ec7-> Hits: 14632, Late: 0, Early: 0, Misses: 0
ece-> Hits: 46967, Late: 1089, Early: 0, Misses: 0
ecf-> Hits: 405, Late: 2338, Early: 0, Misses: 0
ed6-> Hits: 13732, Late: 0, Early: 0, Misses: 0
eda-> Hits: 72700, Late: 0, Early: 0, Misses: 0
edb-> Hits: 14694, Late: 1369, Early: 0, Misses: 0
ede-> Hits: 18175, Late: 0, Early: 0, Misses: 0
ee0-> Hits: 18175, Late: 0, Early: 0, Misses: 0
ee4-> Hits: 21847, Late: 12031, Early: 0, Misses: 0
eec-> Hits: 7325, Late: 2400, Early: 0, Misses: 0
eee-> Hits: 17868, Late: 0, Early: 0, Misses: 0
ef1-> Hits: 12598, Late: 0, Early: 0, Misses: 0
ef2-> Hits: 12955, Late: 2311, Early: 0, Misses: 0
ef5-> Hits: 18175, Late: 0, Early: 0, Misses: 0
ef9-> Hits: 23203, Late: 10812, Early: 0, Misses: 0
efb-> Hits: 18175, Late: 0, Early: 0, Misses: 0
f01-> Hits: 75, Late: 18100, Early: 0, Misses: 0
f02-> Hits: 7241, Late: 4464, Early: 0, Misses: 0
f03-> Hits: 17440, Late: 1, Early: 0, Misses: 734
f08-> Hits: 15251, Late: 0, Early: 0, Misses: 0
f0c-> Hits: 18173, Late: 0, Early: 0, Misses: 2
f0d-> Hits: 12792, Late: 1664, Early: 0, Misses: 0
f12-> Hits: 15096, Late: 2218, Early: 0, Misses: 0
f14-> Hits: 17916, Late: 0, Early: 0, Misses: 0
f15-> Hits: 18174, Late: 0, Early: 0, Misses: 0
f18-> Hits: 18175, Late: 0, Early: 0, Misses: 0
f19-> Hits: 18175, Late: 0, Early: 0, Misses: 0
f1d-> Hits: 10129, Late: 0, Early: 0, Misses: 0
f1e-> Hits: 15855, Late: 0, Early: 0, Misses: 0
f21-> Hits: 13301, Late: 2319, Early: 0, Misses: 0
f27-> Hits: 18175, Late: 0, Early: 0, Misses: 0
f2a-> Hits: 18175, Late: 0, Early: 0, Misses: 0
f2e-> Hits: 18175, Late: 0, Early: 0, Misses: 0
f31-> Hits: 13471, Late: 0, Early: 0, Misses: 0
f33-> Hits: 1866, Late: 0, Early: 0, Misses: 0
f36-> Hits: 13852, Late: 2618, Early: 0, Misses: 1705
f37-> Hits: 37253, Late: 17220, Early: 0, Misses: 0
f3b-> Hits: 18175, Late: 0, Early: 0, Misses: 0
f3d-> Hits: 18174, Late: 0, Early: 0, Misses: 0
f3e-> Hits: 21631, Late: 0, Early: 0, Misses: 0
f3f-> Hits: 16323, Late: 0, Early: 0, Misses: 0
f43-> Hits: 13470, Late: 325, Early: 0, Misses: 0
f46-> Hits: 18174, Late: 0, Early: 0, Misses: 0
f48-> Hits: 32114, Late: 0, Early: 0, Misses: 0
f50-> Hits: 13576, Late: 1753, Early: 0, Misses: 0
f51-> Hits: 32468, Late: 0, Early: 0, Misses: 0
f52-> Hits: 27943, Late: 3365, Early: 0, Misses: 0
f56-> Hits: 13865, Late: 2157, Early: 0, Misses: 0
f58-> Hits: 29074, Late: 3656, Early: 0, Misses: 0
f5f-> Hits: 17252, Late: 0, Early: 0, Misses: 0
f61-> Hits: 11261, Late: 0, Early: 0, Misses: 0
f64-> Hits: 31764, Late: 0, Early: 0, Misses: 0
f65-> Hits: 38363, Late: 1674, Early: 0, Misses: 0
f67-> Hits: 22493, Late: 0, Early: 0, Misses: 0
f68-> Hits: 23233, Late: 0, Early: 0, Misses: 0
f6a-> Hits: 12699, Late: 0, Early: 0, Misses: 0
f6c-> Hits: 15939, Late: 2236, Early: 0, Misses: 0
f6d-> Hits: 18175, Late: 0, Early: 0, Misses: 0
f70-> Hits: 27812, Late: 2329, Early: 0, Misses: 0
f73-> Hits: 18174, Late: 18175, Early: 0, Misses: 0
f76-> Hits: 17291, Late: 0, Early: 0, Misses: 0
f79-> Hits: 18175, Late: 0, Early: 0, Misses: 0
f7d-> Hits: 25357, Late: 1793, Early: 0, Misses: 2
f7e-> Hits: 11402, Late: 2210, Early: 0, Misses: 0
f80-> Hits: 18174, Late: 0, Early: 0, Misses: 0
f83-> Hits: 110, Late: 18065, Early: 0, Misses: 0
f89-> Hits: 1304, Late: 16871, Early: 0, Misses: 0
f8c-> Hits: 18175, Late: 0, Early: 0, Misses: 0
f8d-> Hits: 458, Late: 0, Early: 0, Misses: 0
f8f-> Hits: 63, Late: 18112, Early: 0, Misses: 0
f90-> Hits: 18175, Late: 0, Early: 0, Misses: 0
f92-> Hits: 18006, Late: 0, Early: 0, Misses: 0
f93-> Hits: 18121, Late: 0, Early: 0, Misses: 0
f94-> Hits: 3976, Late: 5789, Early: 0, Misses: 0
f95-> Hits: 18175, Late: 0, Early: 0, Misses: 0
f97-> Hits: 17182, Late: 2246, Early: 0, Misses: 0
f99-> Hits: 12747, Late: 1, Early: 0, Misses: 5427
f9a-> Hits: 31048, Late: 5302, Early: 0, Misses: 0
f9c-> Hits: 11983, Late: 760, Early: 0, Misses: 0
f9e-> Hits: 10323, Late: 2458, Early: 0, Misses: 0
fa0-> Hits: 260, Late: 4553, Early: 0, Misses: 11362
fa2-> Hits: 453, Late: 0, Early: 0, Misses: 0
fa4-> Hits: 1559, Late: 146, Early: 0, Misses: 0
fa5-> Hits: 10024, Late: 0, Early: 0, Misses: 0
fa6-> Hits: 331, Late: 5, Early: 0, Misses: 1868
fa7-> Hits: 2212, Late: 15963, Early: 0, Misses: 0
fa8-> Hits: 25598, Late: 0, Early: 0, Misses: 0
faa-> Hits: 18175, Late: 0, Early: 0, Misses: 0
fab-> Hits: 17852, Late: 0, Early: 0, Misses: 322
fac-> Hits: 17853, Late: 0, Early: 0, Misses: 0
fad-> Hits: 7178, Late: 0, Early: 0, Misses: 0
fb0-> Hits: 0, Late: 18172, Early: 0, Misses: 0
fb1-> Hits: 1064, Late: 17111, Early: 0, Misses: 0
fb4-> Hits: 36349, Late: 0, Early: 0, Misses: 0
fb6-> Hits: 138, Late: 0, Early: 0, Misses: 1
fba-> Hits: 18175, Late: 0, Early: 0, Misses: 0
fbb-> Hits: 2127, Late: 16048, Early: 0, Misses: 0
fbe-> Hits: 3865, Late: 16834, Early: 0, Misses: 0
fbf-> Hits: 18175, Late: 0, Early: 0, Misses: 0
fc2-> Hits: 18174, Late: 0, Early: 0, Misses: 0
fc4-> Hits: 1004, Late: 4158, Early: 0, Misses: 0
fc7-> Hits: 17249, Late: 0, Early: 0, Misses: 0
fc8-> Hits: 18175, Late: 0, Early: 0, Misses: 0
fcd-> Hits: 17864, Late: 0, Early: 0, Misses: 0
fcf-> Hits: 17714, Late: 0, Early: 0, Misses: 0
fd0-> Hits: 18175, Late: 0, Early: 0, Misses: 0
fd1-> Hits: 18175, Late: 0, Early: 0, Misses: 0
fd2-> Hits: 451, Late: 17724, Early: 0, Misses: 0
fd3-> Hits: 18175, Late: 0, Early: 0, Misses: 0
fd6-> Hits: 17853, Late: 0, Early: 0, Misses: 321
fd7-> Hits: 11947, Late: 2499, Early: 0, Misses: 0
fd8-> Hits: 18070, Late: 0, Early: 0, Misses: 0
fda-> Hits: 18126, Late: 0, Early: 0, Misses: 0
fdd-> Hits: 7159, Late: 0, Early: 0, Misses: 0
fde-> Hits: 17866, Late: 0, Early: 0, Misses: 0
fe3-> Hits: 54525, Late: 0, Early: 0, Misses: 0
fe4-> Hits: 4559, Late: 2269, Early: 0, Misses: 2799
fe5-> Hits: 17287, Late: 17205, Early: 0, Misses: 0
fea-> Hits: 18175, Late: 0, Early: 0, Misses: 0
fec-> Hits: 18175, Late: 0, Early: 0, Misses: 0
fee-> Hits: 3505, Late: 2432, Early: 0, Misses: 0
ff0-> Hits: 18021, Late: 0, Early: 0, Misses: 0
ff1-> Hits: 17870, Late: 0, Early: 0, Misses: 304
ff2-> Hits: 9137, Late: 1635, Early: 0, Misses: 0
ff5-> Hits: 18175, Late: 0, Early: 0, Misses: 0
ff6-> Hits: 1940, Late: 0, Early: 0, Misses: 0
ff9-> Hits: 16599, Late: 18144, Early: 0, Misses: 0
ffb-> Hits: 1888, Late: 0, Early: 0, Misses: 0
ffd-> Hits: 2413, Late: 2398, Early: 0, Misses: 0
ffe-> Hits: 1310, Late: 0, Early: 0, Misses: 10
fff-> Hits: 18175, Late: 0, Early: 0, Misses: 0
Total misses (from ip) 6412563
Total accesses (misses) 30909599 6412563
Pref: Addr 0 IP 0 Current 0
 All Calls: 7893202
 Critical Calls: 7893202
------------------
Depth Distribution
------------------
depth 0: 0
depth 1: 5000101
depth 2: 64753
depth 3: 117
depth 4: 0
depth 5: 0
depth 6: 0
depth 7: 0
depth 8: 0
depth 9: 0
depth 10: 0
depth 11: 0
depth 12: 0
depth 13: 0
depth 14: 0
depth 15: 0
depth 16: 0
depth 17: 0
depth 18: 0
depth 19: 0
depth 20: 0
depth 21: 0
depth 22: 0
depth 23: 0
depth 24: 0
depth 25: 0
depth 26: 0
depth 27: 0
depth 28: 0
depth 29: 0
Total: 5064971
-----------------------------
-----------------------------
	Captured at Filter
-----------------------------
depth 0: 0
depth 1: 102941
depth 2: 9347
depth 3: 9
depth 4: 0
depth 5: 0
depth 6: 0
depth 7: 0
depth 8: 0
depth 9: 0
depth 10: 0
depth 11: 0
depth 12: 0
depth 13: 0
depth 14: 0
depth 15: 0
depth 16: 0
depth 17: 0
depth 18: 0
depth 19: 0
depth 20: 0
depth 21: 0
depth 22: 0
depth 23: 0
depth 24: 0
depth 25: 0
depth 26: 0
depth 27: 0
depth 28: 0
depth 29: 0
-----------------------------
-----------------------------
		Lost at Page
-----------------------------
depth 0: 0
depth 1: 1280486
depth 2: 3560
depth 3: 17
depth 4: 0
depth 5: 0
depth 6: 0
depth 7: 0
depth 8: 0
depth 9: 0
depth 10: 0
depth 11: 0
depth 12: 0
depth 13: 0
depth 14: 0
depth 15: 0
depth 16: 0
depth 17: 0
depth 18: 0
depth 19: 0
depth 20: 0
depth 21: 0
depth 22: 0
depth 23: 0
depth 24: 0
depth 25: 0
depth 26: 0
depth 27: 0
depth 28: 0
depth 29: 0
-----------------------------
-----------------------------
	Lost due to PQ Size
-----------------------------
183435
-----------------------------
ST read accesses: 3926228
ST write accesses: 1735
PT read accesses: 42763799
PT write accesses: 4884027
FILTER read accesses: 6996998
FILTER write accesses: 395893
GHR read accesses: 4420990
GHR write accesses: 630811
GHR counter read accesses: 34909250
GHR counter write accesses: 3968317
ST tag read accesses: 1500471296
ST tag write accesses: 290479965

DRAM Statistics
 CHANNEL 0
 RQ ROW_BUFFER_HIT:      86025  ROW_BUFFER_MISS:     112077
 DBUS_CONGESTED:        213
 WQ ROW_BUFFER_HIT:       9615  ROW_BUFFER_MISS:      20088  FULL:          0

 AVG_CONGESTED_CYCLE: 4
 All warmup complete: 2
Channel 0 Bank busy for read cycles: 0
Channel 0 Bank busy for write cycles: 0
Channel 0
Rank 0
0banks busy for read cycles: 39348473
0banks busy for write cycles: 14676
1banks busy for read cycles: 8122720
1banks busy for write cycles: 2086988
2banks busy for read cycles: 3126587
2banks busy for write cycles: 647282
3banks busy for read cycles: 1120128
3banks busy for write cycles: 258179
4banks busy for read cycles: 396210
4banks busy for write cycles: 115615
5banks busy for read cycles: 165385
5banks busy for write cycles: 59918
6banks busy for read cycles: 93871
6banks busy for write cycles: 24410
7banks busy for read cycles: 47657
7banks busy for write cycles: 6763
8banks busy for read cycles: 8662
8banks busy for write cycles: 2866

CPU 0 Branch Prediction Accuracy: 99.9872% MPKI: 0.00114 Average ROB Occupancy at Mispredict: 36.6491
Branch types
NOT_BRANCH: 49554271 99.1085%
BRANCH_DIRECT_JUMP: 54526 0.109052%
BRANCH_INDIRECT: 9087 0.018174%
BRANCH_CONDITIONAL: 272740 0.54548%
BRANCH_DIRECT_CALL: 54526 0.109052%
BRANCH_INDIRECT_CALL: 0 0%
BRANCH_RETURN: 54526 0.109052%
BRANCH_OTHER: 0 0%

DRAM PAGES: 1048576
Allocated PAGES: 4534
