
*** ChampSim Multicore Out-of-Order Simulator ***

Warmup Instructions: 50000000
Simulation Instructions: 50000000
Number of CPUs: 1
LLC sets: 2048
LLC ways: 16
Off-chip DRAM Size: 4096 MB Channels: 1 Width: 64-bit Data Rate: 6400 MT/s
CPU 0 runs ../tracer/traces/607.cactuBSSN_s-3477B.champsimtrace.xz
.xz
CPU 0 Bimodal branch predictor
BTB has LRU replacement policy
ITLB has LRU replacement policy
DTLB has LRU replacement policy
STLB has LRU replacement policy
L1I has LRU replacement policy
CPU 0 L1D Berti prefetcher
L1D has LRU replacement policy
Initialize SRRIP state for L2C
Heartbeat CPU 0 instructions: 10000000 cycles: 3655422 heartbeat IPC: 2.73566 cumulative IPC: 2.73566 (Simulation time: 0 hr 1 min 45 sec) 
Heartbeat CPU 0 instructions: 20000003 cycles: 7309533 heartbeat IPC: 2.73664 cumulative IPC: 2.73615 (Simulation time: 0 hr 3 min 29 sec) 
Heartbeat CPU 0 instructions: 30000000 cycles: 10964126 heartbeat IPC: 2.73628 cumulative IPC: 2.7362 (Simulation time: 0 hr 5 min 14 sec) 
Heartbeat CPU 0 instructions: 40000003 cycles: 14617898 heartbeat IPC: 2.7369 cumulative IPC: 2.73637 (Simulation time: 0 hr 6 min 59 sec) 
Heartbeat CPU 0 instructions: 50000000 cycles: 18274306 heartbeat IPC: 2.73492 cumulative IPC: 2.73608 (Simulation time: 0 hr 8 min 45 sec) 

Warmup complete CPU 0 instructions: 50000004 cycles: 18274307 (Simulation time: 0 hr 8 min 45 sec) 

Heartbeat CPU 0 instructions: 60000000 cycles: 29902923 heartbeat IPC: 0.859948 cumulative IPC: 0.859947 (Simulation time: 0 hr 10 min 40 sec) 
Heartbeat CPU 0 instructions: 70000001 cycles: 41573238 heartbeat IPC: 0.856875 cumulative IPC: 0.858408 (Simulation time: 0 hr 12 min 37 sec) 
Heartbeat CPU 0 instructions: 80000003 cycles: 53186768 heartbeat IPC: 0.861065 cumulative IPC: 0.859292 (Simulation time: 0 hr 14 min 35 sec) 
Heartbeat CPU 0 instructions: 90000002 cycles: 64834875 heartbeat IPC: 0.858509 cumulative IPC: 0.859096 (Simulation time: 0 hr 16 min 31 sec) 
Heartbeat CPU 0 instructions: 100000000 cycles: 76483264 heartbeat IPC: 0.858488 cumulative IPC: 0.858974 (Simulation time: 0 hr 18 min 28 sec) 
Finished CPU 0 instructions: 50000000 cycles: 58208958 cumulative IPC: 0.858974 (Simulation time: 0 hr 18 min 28 sec) 

ChampSim completed all CPUs

Region of Interest Statistics

CPU 0 cumulative IPC: 0.858974 instructions: 50000000 cycles: 58208958
ITLB TOTAL     ACCESS:    6989008  HIT:    6989008  MISS:          0  HIT %:        100  MISS %:          0   MPKI: 0
ITLB LOAD TRANSLATION ACCESS:    6989008  HIT:    6989008  MISS:          0  HIT %:        100  MISS %:          0   MPKI: 0
ITLB PREFETCH  REQUESTED:          0  ISSUED:          0  USEFUL:          0  USELESS:          0
ITLB USEFUL LOAD PREFETCHES:          0 PREFETCH ISSUED TO LOWER LEVEL:          0  ACCURACY: -nan
ITLB TIMELY PREFETCHES:          0 LATE PREFETCHES: 0 DROPPED PREFETCHES: 0
ITLB PREFETCHES SAME FILL-ORIGIN LEVEL: 0 DIFFERENT FILL-ORIGIN LEVEL: 0
ITLB AVERAGE MISS LATENCY: -nan cycles
ITLB RQ	ACCESS:    8555899	FORWARD:          0	MERGED:    1566891	TO_CACHE:    6989008

DTLB TOTAL     ACCESS:   15003543  HIT:   13111004  MISS:    1892539  HIT %:    87.3861  MISS %:    12.6139   MPKI: 37.8508
DTLB LOAD TRANSLATION ACCESS:   15003543  HIT:   13111004  MISS:    1892539  HIT %:    87.3861  MISS %:    12.6139   MPKI: 37.8508
DTLB PREFETCH  REQUESTED:          0  ISSUED:          0  USEFUL:          0  USELESS:          0
DTLB USEFUL LOAD PREFETCHES:          0 PREFETCH ISSUED TO LOWER LEVEL:          0  ACCURACY: -nan
DTLB TIMELY PREFETCHES:          0 LATE PREFETCHES: 0 DROPPED PREFETCHES: 0
DTLB PREFETCHES SAME FILL-ORIGIN LEVEL: 0 DIFFERENT FILL-ORIGIN LEVEL: 0
DTLB AVERAGE MISS LATENCY: 10.3827 cycles
DTLB RQ	ACCESS:   19695894	FORWARD:          0	MERGED:    4494100	TO_CACHE:   15201794

STLB TOTAL     ACCESS:    8730183  HIT:    8728155  MISS:       2028  HIT %:    99.9768  MISS %:  0.0232298   MPKI: 0.04056
STLB LOAD TRANSLATION ACCESS:    1892539  HIT:    1890511  MISS:       2028  HIT %:    99.8928  MISS %:   0.107158   MPKI: 0.04056
STLB TRANSLATION FROM L1D PREFETCHER ACCESS:    6837644  HIT:    6837644  MISS:          0  HIT %:        100  MISS %:          0   MPKI: 0
STLB PREFETCH  REQUESTED:          0  ISSUED:          0  USEFUL:          0  USELESS:          0
STLB USEFUL LOAD PREFETCHES:          0 PREFETCH ISSUED TO LOWER LEVEL:          0  ACCURACY: -nan
STLB TIMELY PREFETCHES:          0 LATE PREFETCHES: 0 DROPPED PREFETCHES: 0
STLB PREFETCHES SAME FILL-ORIGIN LEVEL: 0 DIFFERENT FILL-ORIGIN LEVEL: 0
STLB AVERAGE MISS LATENCY: 790.821 cycles
STLB RQ	ACCESS:   12799740	FORWARD:          0	MERGED:    4069557	TO_CACHE:    8730183

STLB Hit, L1D data hit: 0
STLB Hit, L2C data hit: 0
STLB Hit, LLC data hit: 0
STLB Hit, LLC data miss: 0
STLB STLB hints to L2: 0
L1D TOTAL     ACCESS:   30293740  HIT:   25816130  MISS:    4477610  HIT %:    85.2194  MISS %:    14.7806   MPKI: 89.5522
L1D LOAD      ACCESS:   15640808  HIT:   12470355  MISS:    3170453  HIT %:    79.7296  MISS %:    20.2704   MPKI: 63.4091
L1D RFO       ACCESS:    3955831  HIT:    3657462  MISS:     298369  HIT %:    92.4575  MISS %:    7.54251   MPKI: 5.96738
L1D PREFETCH  ACCESS:   10697101  HIT:    9688313  MISS:    1008788  HIT %:    90.5695  MISS %:    9.43048   MPKI: 20.1758
AGUS PREFETCH L1 MISS: 0
L1D PREFETCH  REQUESTED:   22435898  ISSUED:   22435898  USEFUL:     420868  USELESS:     587929
L1D USEFUL LOAD PREFETCHES:     420868 PREFETCH ISSUED TO LOWER LEVEL:    1073379  ACCURACY: 39.2096
L1D TIMELY PREFETCHES:     420868 LATE PREFETCHES: 64574 DROPPED PREFETCHES: 0
L1D PREFETCHES SAME FILL-ORIGIN LEVEL: 1073379 DIFFERENT FILL-ORIGIN LEVEL: 0
L1D AVERAGE MISS LATENCY: 683623 cycles
L1D RQ	ACCESS:   19348253	FORWARD:          0	MERGED:    3615005	TO_CACHE:   15719064
L1D WQ	ACCESS:    4003944	FORWARD:      19261	MERGED:      27114	TO_CACHE:    3976830
L1D PQ	ACCESS:   11528697	FORWARD:          0	MERGED:     616419	TO_CACHE:   10907201

L1D UNIQUE REGIONS ACCESSED: 0
L1D REGIONS CONFLICTS: 0
L1D Cross Page Prefetch Requests: 0
L1D Same Page Prefetch Requests: 22101553
L1D ROI Sum of L1D PQ occupancy: 141889177
L1D PREFETCHES PUSHED FROM L2C: 0
L1I TOTAL     ACCESS:    7822574  HIT:    6376474  MISS:    1446100  HIT %:    81.5138  MISS %:    18.4862   MPKI: 28.922
L1I LOAD      ACCESS:    7822574  HIT:    6376474  MISS:    1446100  HIT %:    81.5138  MISS %:    18.4862   MPKI: 28.922
L1I PREFETCH  REQUESTED:          0  ISSUED:          0  USEFUL:          0  USELESS:          0
L1I USEFUL LOAD PREFETCHES:          0 PREFETCH ISSUED TO LOWER LEVEL:          0  ACCURACY: -nan
L1I TIMELY PREFETCHES:          0 LATE PREFETCHES: 0 DROPPED PREFETCHES: 0
L1I PREFETCHES SAME FILL-ORIGIN LEVEL: 0 DIFFERENT FILL-ORIGIN LEVEL: 0
L1I AVERAGE MISS LATENCY: 14.059 cycles
L1I RQ	ACCESS:   11907001	FORWARD:          0	MERGED:    3351102	TO_CACHE:    8555899

BTB TOTAL     ACCESS:     280232  HIT:     262131  MISS:      18101  HIT %:    93.5407  MISS %:    6.45929   MPKI: 0.36202
BTB BRANCH_DIRECT_JUMP	ACCESS:      54228  HIT:      54223  MISS:          5
BTB BRANCH_INDIRECT	ACCESS:       9038  HIT:       9037  MISS:          1
BTB BRANCH_CONDITIONAL	ACCESS:     108510  HIT:     108499  MISS:         11
BTB BRANCH_DIRECT_CALL	ACCESS:      54228  HIT:      54223  MISS:          5
BTB BRANCH_INDIRECT_CALL	ACCESS:          0  HIT:          0  MISS:          0
BTB BRANCH_RETURN	ACCESS:      54228  HIT:      36149  MISS:      18079
BTB BRANCH_OTHER ACCESS:          0  HIT:          0  MISS:          0

L2C TOTAL     ACCESS:    6264652  HIT:    5914340  MISS:     350312  HIT %:    94.4081  MISS %:    5.59188   MPKI: 7.00624
L2C LOAD      ACCESS:    4551511  HIT:    4356206  MISS:     195305  HIT %:     95.709  MISS %:    4.29099   MPKI: 3.9061
L2C DATA LOAD MPKI: 3.90534
L2C INSTRUCTION LOAD MPKI: 0.00076
L2C RFO       ACCESS:     298092  HIT:     268840  MISS:      29252  HIT %:    90.1869  MISS %:    9.81308   MPKI: 0.58504
L2C PREFETCH  ACCESS:    1073132  HIT:     951131  MISS:     122001  HIT %:    88.6313  MISS %:    11.3687   MPKI: 2.44002
AGUS PREFETCH L1 MISS: 0
L2C DATA PREFETCH MPKI: 2.44002
L2C INSTRUCTION PREFETCH MPKI: 0
L2C WRITEBACK ACCESS:     338854  HIT:     338145  MISS:        709  HIT %:    99.7908  MISS %:   0.209235   MPKI: 0.01418
L2C LOAD TRANSLATION ACCESS:       3063  HIT:         18  MISS:       3045  HIT %:   0.587659  MISS %:    99.4123   MPKI: 0.0609
L2C PREFETCH  REQUESTED:          0  ISSUED:          0  USEFUL:      69238  USELESS:      52776
L2C USEFUL LOAD PREFETCHES:      69238 PREFETCH ISSUED TO LOWER LEVEL:     122002  ACCURACY: 56.7515
L2C TIMELY PREFETCHES:      69238 LATE PREFETCHES: 0 DROPPED PREFETCHES: 0
L2C PREFETCHES SAME FILL-ORIGIN LEVEL: 0 DIFFERENT FILL-ORIGIN LEVEL: 0
L2C AVERAGE MISS LATENCY: 147.837 cycles
L2C RQ	ACCESS:    4853395	FORWARD:          0	MERGED:          0	TO_CACHE:    4852666
L2C WQ	ACCESS:     338854	FORWARD:        975	MERGED:          0	TO_CACHE:     338854
L2C PQ	ACCESS:    1073379	FORWARD:          0	MERGED:          0	TO_CACHE:    1073133

L2C Instructions Evicting Data 38
L2C Translations Evicting Data 3021
L2C Data Evicting Data 343440
L2C Instructions Evicting Instructions 0
L2C Translations Evicting Instructions 0
L2C Data Evicting Instructions 38
L2C Instructions Evicting Translations 0
L2C Translations Evicting Translations 24
L2C Data Evicting Translations 3042
L2C Dense regions hint from L2: 0
PSCL5 TOTAL     ACCESS:       2028  HIT:       2028  MISS:          0  HIT %:        100  MISS %:          0   MPKI: 0
PSCL5 LOAD TRANSLATION ACCESS:       2028  HIT:       2028  MISS:          0  HIT %:        100  MISS %:          0   MPKI: 0
PSCL5 PREFETCH  REQUESTED:          0  ISSUED:          0  USEFUL:          0  USELESS:          0
PSCL5 USEFUL LOAD PREFETCHES:          0 PREFETCH ISSUED TO LOWER LEVEL:          0  ACCURACY: -nan
PSCL5 TIMELY PREFETCHES:          0 LATE PREFETCHES: 0 DROPPED PREFETCHES: 0
PSCL5 PREFETCHES SAME FILL-ORIGIN LEVEL: 0 DIFFERENT FILL-ORIGIN LEVEL: 0

PSCL4 TOTAL     ACCESS:       2028  HIT:       2028  MISS:          0  HIT %:        100  MISS %:          0   MPKI: 0
PSCL4 LOAD TRANSLATION ACCESS:       2028  HIT:       2028  MISS:          0  HIT %:        100  MISS %:          0   MPKI: 0
PSCL4 PREFETCH  REQUESTED:          0  ISSUED:          0  USEFUL:          0  USELESS:          0
PSCL4 USEFUL LOAD PREFETCHES:          0 PREFETCH ISSUED TO LOWER LEVEL:          0  ACCURACY: -nan
PSCL4 TIMELY PREFETCHES:          0 LATE PREFETCHES: 0 DROPPED PREFETCHES: 0
PSCL4 PREFETCHES SAME FILL-ORIGIN LEVEL: 0 DIFFERENT FILL-ORIGIN LEVEL: 0

PSCL3 TOTAL     ACCESS:       2028  HIT:       2028  MISS:          0  HIT %:        100  MISS %:          0   MPKI: 0
PSCL3 LOAD TRANSLATION ACCESS:       2028  HIT:       2028  MISS:          0  HIT %:        100  MISS %:          0   MPKI: 0
PSCL3 PREFETCH  REQUESTED:          0  ISSUED:          0  USEFUL:          0  USELESS:          0
PSCL3 USEFUL LOAD PREFETCHES:          0 PREFETCH ISSUED TO LOWER LEVEL:          0  ACCURACY: -nan
PSCL3 TIMELY PREFETCHES:          0 LATE PREFETCHES: 0 DROPPED PREFETCHES: 0
PSCL3 PREFETCHES SAME FILL-ORIGIN LEVEL: 0 DIFFERENT FILL-ORIGIN LEVEL: 0

PSCL2 TOTAL     ACCESS:       2028  HIT:        989  MISS:       1039  HIT %:    48.7673  MISS %:    51.2327   MPKI: 0.02078
PSCL2 LOAD TRANSLATION ACCESS:       2028  HIT:        989  MISS:       1039  HIT %:    48.7673  MISS %:    51.2327   MPKI: 0.02078
PSCL2 PREFETCH  REQUESTED:          0  ISSUED:          0  USEFUL:          0  USELESS:          0
PSCL2 USEFUL LOAD PREFETCHES:          0 PREFETCH ISSUED TO LOWER LEVEL:          0  ACCURACY: -nan
PSCL2 TIMELY PREFETCHES:          0 LATE PREFETCHES: 0 DROPPED PREFETCHES: 0
PSCL2 PREFETCHES SAME FILL-ORIGIN LEVEL: 0 DIFFERENT FILL-ORIGIN LEVEL: 0

LLC TOTAL     ACCESS:     378868  HIT:     224795  MISS:     154073  HIT %:    59.3333  MISS %:    40.6667   MPKI: 3.08146
LLC LOAD      ACCESS:     195305  HIT:     125362  MISS:      69943  HIT %:    64.1878  MISS %:    35.8122   MPKI: 1.39886
LLC RFO       ACCESS:      29252  HIT:          2  MISS:      29250  HIT %: 0.00683714  MISS %:    99.9932   MPKI: 0.585
LLC PREFETCH  ACCESS:     122001  HIT:      87866  MISS:      34135  HIT %:    72.0207  MISS %:    27.9793   MPKI: 0.6827
AGUS PREFETCH L1 MISS: 0
LLC WRITEBACK ACCESS:      29265  HIT:       9299  MISS:      19966  HIT %:    31.7752  MISS %:    68.2248   MPKI: 0.39932
LLC LOAD TRANSLATION ACCESS:       3045  HIT:       2266  MISS:        779  HIT %:    74.4171  MISS %:    25.5829   MPKI: 0.01558
LLC PREFETCH  REQUESTED:          0  ISSUED:          0  USEFUL:      26627  USELESS:       9783
LLC USEFUL LOAD PREFETCHES:      26627 PREFETCH ISSUED TO LOWER LEVEL:      34136  ACCURACY: 78.0027
LLC TIMELY PREFETCHES:      26627 LATE PREFETCHES: 0 DROPPED PREFETCHES: 0
LLC PREFETCHES SAME FILL-ORIGIN LEVEL: 0 DIFFERENT FILL-ORIGIN LEVEL: 0
LLC AVERAGE MISS LATENCY: 267.027 cycles
LLC RQ	ACCESS:     227602	FORWARD:          0	MERGED:          0	TO_CACHE:     227602
LLC WQ	ACCESS:      29265	FORWARD:          0	MERGED:          0	TO_CACHE:      29265
LLC PQ	ACCESS:     122002	FORWARD:          0	MERGED:          0	TO_CACHE:     122002

LLC Dense regions hint to LLC: 0

RAW hits: 111478
Loads Generated: 19459731
Loads sent to L1D: 19348253
Stores Generated: 4004020
Stores sent to L1D: 4004023
Major fault: 0 Minor fault: 4562
Allocated PAGES: 4562
CPU 0 L1D berti prefetcher final stats
3-> Hits: 7580, Late: 10494, Early: 0, Misses: 0
6-> Hits: 1678, Late: 16396, Early: 0, Misses: 0
7-> Hits: 822, Late: 0, Early: 0, Misses: 0
8-> Hits: 27465, Late: 2353, Early: 0, Misses: 0
e-> Hits: 16735, Late: 0, Early: 0, Misses: 0
12-> Hits: 5285, Late: 0, Early: 0, Misses: 0
17-> Hits: 8404, Late: 0, Early: 0, Misses: 0
18-> Hits: 22230, Late: 0, Early: 0, Misses: 0
19-> Hits: 18074, Late: 0, Early: 0, Misses: 0
1a-> Hits: 4953, Late: 13121, Early: 0, Misses: 0
1d-> Hits: 10, Late: 0, Early: 0, Misses: 0
1e-> Hits: 7753, Late: 3461, Early: 0, Misses: 0
20-> Hits: 22524, Late: 0, Early: 0, Misses: 0
21-> Hits: 26852, Late: 0, Early: 0, Misses: 0
22-> Hits: 18074, Late: 0, Early: 0, Misses: 0
25-> Hits: 6185, Late: 2324, Early: 0, Misses: 0
26-> Hits: 2530, Late: 2150, Early: 0, Misses: 3111
28-> Hits: 18074, Late: 0, Early: 0, Misses: 0
2a-> Hits: 15025, Late: 0, Early: 0, Misses: 0
2b-> Hits: 11357, Late: 0, Early: 0, Misses: 0
30-> Hits: 1467, Late: 0, Early: 0, Misses: 0
31-> Hits: 514, Late: 0, Early: 0, Misses: 0
33-> Hits: 12418, Late: 0, Early: 0, Misses: 0
34-> Hits: 17766, Late: 0, Early: 0, Misses: 0
37-> Hits: 13197, Late: 2875, Early: 0, Misses: 0
38-> Hits: 1396, Late: 0, Early: 0, Misses: 0
3a-> Hits: 12440, Late: 1, Early: 0, Misses: 5633
3c-> Hits: 12773, Late: 2251, Early: 0, Misses: 0
3e-> Hits: 5147, Late: 0, Early: 0, Misses: 0
40-> Hits: 30972, Late: 0, Early: 0, Misses: 0
42-> Hits: 11468, Late: 2101, Early: 0, Misses: 0
43-> Hits: 1, Late: 1, Early: 0, Misses: 0
46-> Hits: 9774, Late: 1127, Early: 0, Misses: 0
47-> Hits: 17087, Late: 0, Early: 0, Misses: 0
48-> Hits: 5716, Late: 0, Early: 0, Misses: 0
49-> Hits: 18074, Late: 0, Early: 0, Misses: 0
4b-> Hits: 1411, Late: 0, Early: 0, Misses: 0
4c-> Hits: 309, Late: 17766, Early: 0, Misses: 0
4d-> Hits: 18074, Late: 0, Early: 0, Misses: 0
50-> Hits: 15966, Late: 0, Early: 0, Misses: 0
51-> Hits: 32066, Late: 0, Early: 0, Misses: 314
53-> Hits: 3651, Late: 14423, Early: 0, Misses: 0
58-> Hits: 35966, Late: 0, Early: 0, Misses: 0
59-> Hits: 9590, Late: 26559, Early: 0, Misses: 0
5a-> Hits: 18074, Late: 0, Early: 0, Misses: 0
5c-> Hits: 17975, Late: 0, Early: 0, Misses: 0
5d-> Hits: 5727, Late: 12347, Early: 0, Misses: 0
60-> Hits: 4523, Late: 1260, Early: 0, Misses: 0
62-> Hits: 34099, Late: 0, Early: 0, Misses: 0
66-> Hits: 1777, Late: 0, Early: 0, Misses: 3
67-> Hits: 25855, Late: 2139, Early: 0, Misses: 0
68-> Hits: 17145, Late: 0, Early: 0, Misses: 0
69-> Hits: 18074, Late: 0, Early: 0, Misses: 0
6b-> Hits: 7372, Late: 10702, Early: 0, Misses: 0
6c-> Hits: 12988, Late: 743, Early: 0, Misses: 0
6e-> Hits: 0, Late: 18071, Early: 0, Misses: 0
6f-> Hits: 18074, Late: 0, Early: 0, Misses: 0
70-> Hits: 11017, Late: 0, Early: 0, Misses: 0
72-> Hits: 36149, Late: 0, Early: 0, Misses: 0
73-> Hits: 18074, Late: 0, Early: 0, Misses: 0
75-> Hits: 9310, Late: 4105, Early: 0, Misses: 0
77-> Hits: 885, Late: 17190, Early: 0, Misses: 0
78-> Hits: 36148, Late: 0, Early: 0, Misses: 0
7b-> Hits: 10968, Late: 0, Early: 0, Misses: 15
7c-> Hits: 2069, Late: 0, Early: 0, Misses: 0
7e-> Hits: 5533, Late: 0, Early: 0, Misses: 0
81-> Hits: 7923, Late: 10152, Early: 0, Misses: 0
82-> Hits: 33529, Late: 0, Early: 0, Misses: 0
83-> Hits: 22150, Late: 12721, Early: 0, Misses: 0
84-> Hits: 18074, Late: 0, Early: 0, Misses: 0
86-> Hits: 654, Late: 17420, Early: 0, Misses: 0
87-> Hits: 10014, Late: 0, Early: 0, Misses: 0
8a-> Hits: 20209, Late: 2272, Early: 0, Misses: 0
8b-> Hits: 11990, Late: 2828, Early: 0, Misses: 0
8c-> Hits: 27, Late: 0, Early: 0, Misses: 0
90-> Hits: 18074, Late: 0, Early: 0, Misses: 0
91-> Hits: 13863, Late: 0, Early: 0, Misses: 101
94-> Hits: 17871, Late: 0, Early: 0, Misses: 0
96-> Hits: 30356, Late: 1926, Early: 0, Misses: 0
9b-> Hits: 35827, Late: 0, Early: 0, Misses: 321
9e-> Hits: 6018, Late: 0, Early: 0, Misses: 0
a0-> Hits: 18074, Late: 0, Early: 0, Misses: 0
a1-> Hits: 22543, Late: 0, Early: 0, Misses: 0
a5-> Hits: 18074, Late: 0, Early: 0, Misses: 0
a6-> Hits: 6243, Late: 29906, Early: 0, Misses: 0
a9-> Hits: 30580, Late: 0, Early: 0, Misses: 116
aa-> Hits: 14828, Late: 0, Early: 0, Misses: 0
ab-> Hits: 15726, Late: 4851, Early: 0, Misses: 0
ac-> Hits: 17323, Late: 0, Early: 0, Misses: 0
b1-> Hits: 9286, Late: 20947, Early: 0, Misses: 0
b2-> Hits: 18074, Late: 0, Early: 0, Misses: 0
b5-> Hits: 14555, Late: 0, Early: 0, Misses: 0
b6-> Hits: 19023, Late: 0, Early: 0, Misses: 0
b7-> Hits: 10457, Late: 4358, Early: 0, Misses: 0
b9-> Hits: 15178, Late: 1183, Early: 0, Misses: 0
bb-> Hits: 6535, Late: 11539, Early: 0, Misses: 0
bc-> Hits: 5064, Late: 0, Early: 0, Misses: 0
bf-> Hits: 12454, Late: 5620, Early: 0, Misses: 0
c0-> Hits: 11607, Late: 2924, Early: 0, Misses: 0
c1-> Hits: 9474, Late: 0, Early: 0, Misses: 0
c6-> Hits: 18074, Late: 0, Early: 0, Misses: 0
c9-> Hits: 22748, Late: 13391, Early: 0, Misses: 10
ca-> Hits: 3095, Late: 0, Early: 0, Misses: 0
cb-> Hits: 17223, Late: 0, Early: 0, Misses: 0
ce-> Hits: 13800, Late: 872, Early: 0, Misses: 0
cf-> Hits: 15664, Late: 13321, Early: 0, Misses: 0
d1-> Hits: 18074, Late: 0, Early: 0, Misses: 0
d3-> Hits: 11824, Late: 2176, Early: 0, Misses: 0
d4-> Hits: 25189, Late: 3041, Early: 0, Misses: 0
d5-> Hits: 10271, Late: 0, Early: 0, Misses: 0
d9-> Hits: 17712, Late: 0, Early: 0, Misses: 0
da-> Hits: 25822, Late: 0, Early: 0, Misses: 24
df-> Hits: 13158, Late: 0, Early: 0, Misses: 0
e1-> Hits: 22628, Late: 13521, Early: 0, Misses: 0
e2-> Hits: 29917, Late: 2278, Early: 0, Misses: 0
e6-> Hits: 18074, Late: 0, Early: 0, Misses: 0
e7-> Hits: 31358, Late: 12625, Early: 0, Misses: 0
ec-> Hits: 34050, Late: 6113, Early: 0, Misses: 0
f0-> Hits: 1242, Late: 5, Early: 0, Misses: 1
f4-> Hits: 31206, Late: 4942, Early: 0, Misses: 0
f5-> Hits: 11260, Late: 804, Early: 0, Misses: 0
f7-> Hits: 18074, Late: 0, Early: 0, Misses: 0
f8-> Hits: 12272, Late: 0, Early: 0, Misses: 0
fa-> Hits: 17848, Late: 208, Early: 0, Misses: 18
fc-> Hits: 10986, Late: 0, Early: 0, Misses: 0
fd-> Hits: 28, Late: 0, Early: 0, Misses: 0
fe-> Hits: 21451, Late: 2580, Early: 0, Misses: 0
ff-> Hits: 16943, Late: 0, Early: 0, Misses: 1131
102-> Hits: 12890, Late: 1487, Early: 0, Misses: 0
105-> Hits: 26205, Late: 0, Early: 0, Misses: 0
107-> Hits: 18751, Late: 1740, Early: 0, Misses: 0
109-> Hits: 18074, Late: 0, Early: 0, Misses: 0
10a-> Hits: 17951, Late: 123, Early: 0, Misses: 0
10c-> Hits: 27, Late: 17834, Early: 0, Misses: 0
10d-> Hits: 9268, Late: 980, Early: 0, Misses: 0
10e-> Hits: 24898, Late: 0, Early: 0, Misses: 0
112-> Hits: 19242, Late: 0, Early: 0, Misses: 0
114-> Hits: 18074, Late: 0, Early: 0, Misses: 0
117-> Hits: 17095, Late: 940, Early: 0, Misses: 0
11a-> Hits: 4304, Late: 31845, Early: 0, Misses: 0
11b-> Hits: 18074, Late: 0, Early: 0, Misses: 0
11e-> Hits: 16207, Late: 1867, Early: 0, Misses: 0
11f-> Hits: 15880, Late: 0, Early: 0, Misses: 0
120-> Hits: 313, Late: 0, Early: 0, Misses: 0
124-> Hits: 25419, Late: 10730, Early: 0, Misses: 0
128-> Hits: 36148, Late: 0, Early: 0, Misses: 0
129-> Hits: 17282, Late: 0, Early: 0, Misses: 0
12b-> Hits: 17946, Late: 0, Early: 0, Misses: 0
12d-> Hits: 1253, Late: 0, Early: 0, Misses: 0
12f-> Hits: 26, Late: 18048, Early: 0, Misses: 0
132-> Hits: 7317, Late: 10758, Early: 0, Misses: 0
134-> Hits: 6873, Late: 2469, Early: 0, Misses: 0
136-> Hits: 19788, Late: 0, Early: 0, Misses: 0
137-> Hits: 7504, Late: 0, Early: 0, Misses: 0
13a-> Hits: 27849, Late: 0, Early: 0, Misses: 16
13c-> Hits: 7263, Late: 2050, Early: 0, Misses: 0
13d-> Hits: 360, Late: 17714, Early: 0, Misses: 0
13e-> Hits: 7119, Late: 0, Early: 0, Misses: 0
141-> Hits: 18074, Late: 0, Early: 0, Misses: 0
142-> Hits: 50, Late: 17069, Early: 0, Misses: 0
143-> Hits: 36122, Late: 0, Early: 0, Misses: 0
145-> Hits: 5135, Late: 12939, Early: 0, Misses: 0
147-> Hits: 20482, Late: 1591, Early: 0, Misses: 0
14a-> Hits: 9837, Late: 3825, Early: 0, Misses: 0
14c-> Hits: 13454, Late: 4620, Early: 0, Misses: 0
14e-> Hits: 18074, Late: 0, Early: 0, Misses: 0
150-> Hits: 439, Late: 2291, Early: 0, Misses: 0
152-> Hits: 18074, Late: 0, Early: 0, Misses: 0
156-> Hits: 2569, Late: 0, Early: 0, Misses: 0
157-> Hits: 14579, Late: 2150, Early: 0, Misses: 0
15a-> Hits: 18184, Late: 0, Early: 0, Misses: 0
15d-> Hits: 8294, Late: 0, Early: 0, Misses: 0
15f-> Hits: 18074, Late: 0, Early: 0, Misses: 0
160-> Hits: 18074, Late: 0, Early: 0, Misses: 0
163-> Hits: 18074, Late: 0, Early: 0, Misses: 0
165-> Hits: 5022, Late: 13052, Early: 0, Misses: 0
167-> Hits: 18074, Late: 0, Early: 0, Misses: 0
168-> Hits: 404, Late: 0, Early: 0, Misses: 0
169-> Hits: 10462, Late: 0, Early: 0, Misses: 5
16a-> Hits: 10962, Late: 2441, Early: 0, Misses: 0
16b-> Hits: 18074, Late: 0, Early: 0, Misses: 0
170-> Hits: 18074, Late: 0, Early: 0, Misses: 0
172-> Hits: 17283, Late: 0, Early: 0, Misses: 791
173-> Hits: 7054, Late: 2259, Early: 0, Misses: 0
175-> Hits: 23930, Late: 0, Early: 0, Misses: 0
178-> Hits: 42284, Late: 1292, Early: 0, Misses: 0
17a-> Hits: 5342, Late: 12732, Early: 0, Misses: 0
17b-> Hits: 18074, Late: 0, Early: 0, Misses: 0
17d-> Hits: 18074, Late: 0, Early: 0, Misses: 0
17e-> Hits: 383, Late: 0, Early: 0, Misses: 0
17f-> Hits: 24986, Late: 2914, Early: 0, Misses: 0
180-> Hits: 17414, Late: 0, Early: 0, Misses: 0
183-> Hits: 17662, Late: 0, Early: 0, Misses: 0
185-> Hits: 17483, Late: 0, Early: 0, Misses: 591
186-> Hits: 35875, Late: 0, Early: 0, Misses: 0
187-> Hits: 205, Late: 17869, Early: 0, Misses: 0
189-> Hits: 3019, Late: 0, Early: 0, Misses: 0
18d-> Hits: 36148, Late: 0, Early: 0, Misses: 0
18e-> Hits: 18976, Late: 12725, Early: 0, Misses: 0
18f-> Hits: 18074, Late: 0, Early: 0, Misses: 0
193-> Hits: 8940, Late: 2593, Early: 0, Misses: 0
194-> Hits: 12761, Late: 2229, Early: 0, Misses: 0
196-> Hits: 18214, Late: 0, Early: 0, Misses: 0
198-> Hits: 10431, Late: 0, Early: 0, Misses: 0
199-> Hits: 31657, Late: 4491, Early: 0, Misses: 0
19b-> Hits: 13081, Late: 2122, Early: 0, Misses: 0
19e-> Hits: 4964, Late: 13110, Early: 0, Misses: 0
19f-> Hits: 16733, Late: 0, Early: 0, Misses: 0
1a1-> Hits: 29166, Late: 0, Early: 0, Misses: 0
1a3-> Hits: 6911, Late: 3821, Early: 0, Misses: 0
1a5-> Hits: 17232, Late: 0, Early: 0, Misses: 0
1a7-> Hits: 548, Late: 0, Early: 0, Misses: 0
1a8-> Hits: 12579, Late: 5495, Early: 0, Misses: 0
1ab-> Hits: 178, Late: 0, Early: 0, Misses: 0
1b1-> Hits: 791, Late: 17254, Early: 0, Misses: 0
1b6-> Hits: 46914, Late: 100, Early: 0, Misses: 6
1b7-> Hits: 18074, Late: 0, Early: 0, Misses: 0
1b8-> Hits: 12983, Late: 282, Early: 0, Misses: 0
1b9-> Hits: 15797, Late: 0, Early: 0, Misses: 0
1bd-> Hits: 98, Late: 0, Early: 0, Misses: 0
1be-> Hits: 33019, Late: 0, Early: 0, Misses: 0
1c3-> Hits: 1, Late: 18023, Early: 0, Misses: 0
1c4-> Hits: 18074, Late: 0, Early: 0, Misses: 0
1c6-> Hits: 13848, Late: 1810, Early: 0, Misses: 0
1c8-> Hits: 11124, Late: 2167, Early: 0, Misses: 0
1ca-> Hits: 27122, Late: 99, Early: 0, Misses: 0
1cb-> Hits: 14116, Late: 2162, Early: 0, Misses: 0
1cc-> Hits: 17707, Late: 0, Early: 0, Misses: 0
1ce-> Hits: 18074, Late: 0, Early: 0, Misses: 0
1d0-> Hits: 141, Late: 17830, Early: 0, Misses: 0
1d3-> Hits: 15367, Late: 0, Early: 0, Misses: 0
1d7-> Hits: 303, Late: 0, Early: 0, Misses: 0
1da-> Hits: 16335, Late: 1661, Early: 0, Misses: 0
1db-> Hits: 18074, Late: 0, Early: 0, Misses: 0
1de-> Hits: 15937, Late: 0, Early: 0, Misses: 0
1e0-> Hits: 608, Late: 17466, Early: 0, Misses: 0
1e1-> Hits: 15794, Late: 2279, Early: 0, Misses: 0
1e4-> Hits: 14075, Late: 2282, Early: 0, Misses: 0
1e5-> Hits: 18074, Late: 0, Early: 0, Misses: 0
1e7-> Hits: 12918, Late: 0, Early: 0, Misses: 0
1e8-> Hits: 0, Late: 18074, Early: 0, Misses: 0
1ea-> Hits: 11105, Late: 0, Early: 0, Misses: 3
1ee-> Hits: 19, Late: 18055, Early: 0, Misses: 0
1f0-> Hits: 12573, Late: 5501, Early: 0, Misses: 0
1f1-> Hits: 18517, Late: 4880, Early: 0, Misses: 0
1f2-> Hits: 6937, Late: 4017, Early: 0, Misses: 0
1f6-> Hits: 15301, Late: 0, Early: 0, Misses: 0
1f7-> Hits: 13856, Late: 17657, Early: 0, Misses: 4
1fc-> Hits: 11982, Late: 2203, Early: 0, Misses: 0
1fe-> Hits: 13300, Late: 0, Early: 0, Misses: 0
1ff-> Hits: 134, Late: 0, Early: 0, Misses: 0
201-> Hits: 34678, Late: 5709, Early: 0, Misses: 0
203-> Hits: 18074, Late: 0, Early: 0, Misses: 0
204-> Hits: 26, Late: 18048, Early: 0, Misses: 0
205-> Hits: 18074, Late: 0, Early: 0, Misses: 0
207-> Hits: 25131, Late: 7, Early: 0, Misses: 2
209-> Hits: 5145, Late: 5329, Early: 0, Misses: 0
20a-> Hits: 18074, Late: 0, Early: 0, Misses: 0
20b-> Hits: 18074, Late: 0, Early: 0, Misses: 0
20f-> Hits: 8886, Late: 2454, Early: 0, Misses: 0
213-> Hits: 18082, Late: 0, Early: 0, Misses: 0
214-> Hits: 1598, Late: 344, Early: 0, Misses: 0
215-> Hits: 23617, Late: 2119, Early: 0, Misses: 1
21a-> Hits: 592, Late: 17482, Early: 0, Misses: 0
21c-> Hits: 14306, Late: 0, Early: 0, Misses: 0
21d-> Hits: 19980, Late: 2359, Early: 0, Misses: 2
21f-> Hits: 19148, Late: 1, Early: 0, Misses: 0
221-> Hits: 18074, Late: 0, Early: 0, Misses: 0
224-> Hits: 11380, Late: 0, Early: 0, Misses: 0
227-> Hits: 4723, Late: 13351, Early: 0, Misses: 0
229-> Hits: 10188, Late: 1993, Early: 0, Misses: 0
22a-> Hits: 6696, Late: 0, Early: 0, Misses: 0
22b-> Hits: 2437, Late: 16931, Early: 0, Misses: 0
22e-> Hits: 18704, Late: 0, Early: 0, Misses: 0
22f-> Hits: 10895, Late: 0, Early: 0, Misses: 0
230-> Hits: 17402, Late: 0, Early: 0, Misses: 724
234-> Hits: 18074, Late: 0, Early: 0, Misses: 0
235-> Hits: 318, Late: 4296, Early: 0, Misses: 0
239-> Hits: 907, Late: 0, Early: 0, Misses: 0
23a-> Hits: 18074, Late: 0, Early: 0, Misses: 0
23e-> Hits: 18079, Late: 42, Early: 0, Misses: 0
240-> Hits: 6036, Late: 0, Early: 0, Misses: 0
241-> Hits: 12931, Late: 0, Early: 0, Misses: 1
242-> Hits: 6632, Late: 2260, Early: 0, Misses: 0
243-> Hits: 986, Late: 17136, Early: 0, Misses: 0
245-> Hits: 18074, Late: 0, Early: 0, Misses: 0
247-> Hits: 30577, Late: 869, Early: 0, Misses: 0
248-> Hits: 25914, Late: 8, Early: 0, Misses: 0
24a-> Hits: 13992, Late: 0, Early: 0, Misses: 0
24d-> Hits: 6275, Late: 11799, Early: 0, Misses: 0
24f-> Hits: 27669, Late: 55, Early: 0, Misses: 2
251-> Hits: 18074, Late: 0, Early: 0, Misses: 0
253-> Hits: 16029, Late: 0, Early: 0, Misses: 0
254-> Hits: 18074, Late: 0, Early: 0, Misses: 0
256-> Hits: 1967, Late: 16107, Early: 0, Misses: 0
257-> Hits: 18062, Late: 0, Early: 0, Misses: 12
258-> Hits: 2992, Late: 0, Early: 0, Misses: 0
25d-> Hits: 33920, Late: 0, Early: 0, Misses: 0
25f-> Hits: 12695, Late: 2554, Early: 0, Misses: 2
260-> Hits: 13837, Late: 0, Early: 0, Misses: 0
262-> Hits: 11933, Late: 1418, Early: 0, Misses: 0
264-> Hits: 518, Late: 17556, Early: 0, Misses: 0
265-> Hits: 1534, Late: 2, Early: 0, Misses: 0
266-> Hits: 18074, Late: 0, Early: 0, Misses: 0
267-> Hits: 11386, Late: 2239, Early: 0, Misses: 0
269-> Hits: 14969, Late: 2269, Early: 0, Misses: 0
26d-> Hits: 18056, Late: 0, Early: 0, Misses: 18
26e-> Hits: 16481, Late: 4373, Early: 0, Misses: 0
26f-> Hits: 13974, Late: 0, Early: 0, Misses: 2
270-> Hits: 17872, Late: 0, Early: 0, Misses: 0
273-> Hits: 18074, Late: 0, Early: 0, Misses: 0
274-> Hits: 18074, Late: 0, Early: 0, Misses: 0
277-> Hits: 29345, Late: 17117, Early: 0, Misses: 0
27b-> Hits: 18056, Late: 0, Early: 0, Misses: 18
27d-> Hits: 11028, Late: 2, Early: 0, Misses: 0
282-> Hits: 18074, Late: 0, Early: 0, Misses: 0
283-> Hits: 36114, Late: 0, Early: 0, Misses: 34
284-> Hits: 2898, Late: 15176, Early: 0, Misses: 0
285-> Hits: 10500, Late: 1495, Early: 0, Misses: 0
289-> Hits: 18074, Late: 0, Early: 0, Misses: 0
28b-> Hits: 1967, Late: 0, Early: 0, Misses: 0
28f-> Hits: 17179, Late: 0, Early: 0, Misses: 0
290-> Hits: 29810, Late: 3648, Early: 0, Misses: 0
291-> Hits: 18006, Late: 26, Early: 0, Misses: 15
292-> Hits: 14834, Late: 0, Early: 0, Misses: 0
296-> Hits: 14375, Late: 1399, Early: 0, Misses: 0
298-> Hits: 6107, Late: 11967, Early: 0, Misses: 0
29a-> Hits: 13901, Late: 0, Early: 0, Misses: 0
29c-> Hits: 14106, Late: 2236, Early: 0, Misses: 0
29e-> Hits: 5560, Late: 2404, Early: 0, Misses: 0
29f-> Hits: 17693, Late: 0, Early: 0, Misses: 17
2a4-> Hits: 23, Late: 0, Early: 0, Misses: 0
2a5-> Hits: 26622, Late: 0, Early: 0, Misses: 0
2ab-> Hits: 16518, Late: 1356, Early: 0, Misses: 0
2ac-> Hits: 26595, Late: 2316, Early: 0, Misses: 0
2ad-> Hits: 5092, Late: 13118, Early: 0, Misses: 2
2b2-> Hits: 48912, Late: 2177, Early: 0, Misses: 0
2b3-> Hits: 28199, Late: 0, Early: 0, Misses: 0
2b8-> Hits: 9898, Late: 2317, Early: 0, Misses: 0
2b9-> Hits: 2, Late: 18072, Early: 0, Misses: 0
2ba-> Hits: 8776, Late: 1982, Early: 0, Misses: 0
2bd-> Hits: 4121, Late: 3, Early: 0, Misses: 0
2be-> Hits: 17984, Late: 0, Early: 0, Misses: 18
2bf-> Hits: 17464, Late: 0, Early: 0, Misses: 0
2c4-> Hits: 3844, Late: 19487, Early: 0, Misses: 0
2c5-> Hits: 38468, Late: 15638, Early: 0, Misses: 116
2c8-> Hits: 51, Late: 0, Early: 0, Misses: 0
2c9-> Hits: 5209, Late: 12865, Early: 0, Misses: 0
2ca-> Hits: 16340, Late: 0, Early: 0, Misses: 0
2cb-> Hits: 13559, Late: 2, Early: 0, Misses: 0
2cd-> Hits: 18007, Late: 0, Early: 0, Misses: 123
2cf-> Hits: 9713, Late: 2415, Early: 0, Misses: 0
2d0-> Hits: 6676, Late: 11398, Early: 0, Misses: 0
2d2-> Hits: 13998, Late: 2491, Early: 0, Misses: 0
2d6-> Hits: 422, Late: 0, Early: 0, Misses: 0
2d7-> Hits: 29684, Late: 1712, Early: 0, Misses: 0
2da-> Hits: 16936, Late: 0, Early: 0, Misses: 0
2db-> Hits: 7295, Late: 10938, Early: 0, Misses: 2
2dd-> Hits: 18074, Late: 0, Early: 0, Misses: 0
2e0-> Hits: 2299, Late: 2, Early: 0, Misses: 0
2e2-> Hits: 953, Late: 17121, Early: 0, Misses: 0
2e3-> Hits: 18074, Late: 0, Early: 0, Misses: 0
2e5-> Hits: 4790, Late: 2187, Early: 0, Misses: 0
2e6-> Hits: 8224, Late: 18060, Early: 0, Misses: 0
2e7-> Hits: 17961, Late: 0, Early: 0, Misses: 0
2ea-> Hits: 9649, Late: 1, Early: 0, Misses: 0
2eb-> Hits: 5314, Late: 5211, Early: 0, Misses: 0
2ec-> Hits: 5600, Late: 12474, Early: 0, Misses: 0
2ee-> Hits: 16152, Late: 0, Early: 0, Misses: 0
2ef-> Hits: 18074, Late: 0, Early: 0, Misses: 0
2f0-> Hits: 36, Late: 0, Early: 0, Misses: 0
2f2-> Hits: 5356, Late: 12718, Early: 0, Misses: 0
2f3-> Hits: 17785, Late: 0, Early: 0, Misses: 0
2f5-> Hits: 18042, Late: 0, Early: 0, Misses: 0
2f6-> Hits: 1790, Late: 242, Early: 0, Misses: 0
2f7-> Hits: 10199, Late: 3081, Early: 0, Misses: 0
2fd-> Hits: 1580, Late: 0, Early: 0, Misses: 0
2fe-> Hits: 9855, Late: 0, Early: 0, Misses: 0
301-> Hits: 23911, Late: 2558, Early: 0, Misses: 0
303-> Hits: 6266, Late: 0, Early: 0, Misses: 0
305-> Hits: 5966, Late: 12108, Early: 0, Misses: 0
308-> Hits: 390, Late: 17684, Early: 0, Misses: 0
30a-> Hits: 31496, Late: 2106, Early: 0, Misses: 0
30d-> Hits: 11611, Late: 2381, Early: 0, Misses: 0
311-> Hits: 8108, Late: 0, Early: 0, Misses: 0
313-> Hits: 9629, Late: 0, Early: 0, Misses: 0
316-> Hits: 5320, Late: 12755, Early: 0, Misses: 0
317-> Hits: 31928, Late: 0, Early: 0, Misses: 0
318-> Hits: 18074, Late: 0, Early: 0, Misses: 0
31b-> Hits: 9367, Late: 19633, Early: 0, Misses: 0
320-> Hits: 17216, Late: 0, Early: 0, Misses: 0
321-> Hits: 1516, Late: 0, Early: 0, Misses: 0
324-> Hits: 17225, Late: 0, Early: 0, Misses: 0
325-> Hits: 18074, Late: 0, Early: 0, Misses: 0
326-> Hits: 6498, Late: 11576, Early: 0, Misses: 0
328-> Hits: 7486, Late: 1834, Early: 0, Misses: 0
32b-> Hits: 5516, Late: 3216, Early: 0, Misses: 0
331-> Hits: 772, Late: 0, Early: 0, Misses: 0
332-> Hits: 12312, Late: 2, Early: 0, Misses: 0
337-> Hits: 232, Late: 0, Early: 0, Misses: 0
339-> Hits: 5687, Late: 12387, Early: 0, Misses: 0
33a-> Hits: 21342, Late: 13502, Early: 0, Misses: 0
33d-> Hits: 17774, Late: 0, Early: 0, Misses: 0
33e-> Hits: 8376, Late: 2327, Early: 0, Misses: 0
33f-> Hits: 3280, Late: 2814, Early: 0, Misses: 0
343-> Hits: 12430, Late: 1, Early: 0, Misses: 5643
344-> Hits: 13675, Late: 1, Early: 0, Misses: 0
345-> Hits: 172, Late: 0, Early: 0, Misses: 0
348-> Hits: 3940, Late: 14134, Early: 0, Misses: 0
34c-> Hits: 14248, Late: 3826, Early: 0, Misses: 0
34d-> Hits: 15383, Late: 0, Early: 0, Misses: 0
34f-> Hits: 17981, Late: 0, Early: 0, Misses: 0
350-> Hits: 10, Late: 0, Early: 0, Misses: 0
351-> Hits: 9264, Late: 0, Early: 0, Misses: 0
355-> Hits: 18073, Late: 0, Early: 0, Misses: 1
356-> Hits: 39256, Late: 2612, Early: 0, Misses: 0
358-> Hits: 18074, Late: 0, Early: 0, Misses: 0
35d-> Hits: 18074, Late: 0, Early: 0, Misses: 0
35f-> Hits: 18074, Late: 0, Early: 0, Misses: 0
367-> Hits: 18074, Late: 0, Early: 0, Misses: 0
368-> Hits: 18006, Late: 0, Early: 0, Misses: 0
369-> Hits: 13582, Late: 2919, Early: 0, Misses: 0
36c-> Hits: 8, Late: 0, Early: 0, Misses: 0
36f-> Hits: 18074, Late: 0, Early: 0, Misses: 0
370-> Hits: 6004, Late: 0, Early: 0, Misses: 0
371-> Hits: 233, Late: 0, Early: 0, Misses: 0
374-> Hits: 18074, Late: 0, Early: 0, Misses: 0
377-> Hits: 8, Late: 0, Early: 0, Misses: 0
378-> Hits: 9991, Late: 1276, Early: 0, Misses: 0
37a-> Hits: 898, Late: 0, Early: 0, Misses: 0
37b-> Hits: 17799, Late: 0, Early: 0, Misses: 0
37d-> Hits: 1082, Late: 0, Early: 0, Misses: 0
37f-> Hits: 9, Late: 0, Early: 0, Misses: 0
380-> Hits: 18074, Late: 0, Early: 0, Misses: 0
385-> Hits: 18213, Late: 14573, Early: 0, Misses: 0
387-> Hits: 8609, Late: 3235, Early: 0, Misses: 0
388-> Hits: 0, Late: 18074, Early: 0, Misses: 0
389-> Hits: 32984, Late: 0, Early: 0, Misses: 0
38a-> Hits: 13968, Late: 0, Early: 0, Misses: 0
38d-> Hits: 10, Late: 0, Early: 0, Misses: 0
38e-> Hits: 774, Late: 17310, Early: 0, Misses: 0
38f-> Hits: 5825, Late: 12249, Early: 0, Misses: 0
390-> Hits: 10, Late: 0, Early: 0, Misses: 0
391-> Hits: 7702, Late: 0, Early: 0, Misses: 0
392-> Hits: 10, Late: 0, Early: 0, Misses: 0
393-> Hits: 18074, Late: 0, Early: 0, Misses: 0
394-> Hits: 18084, Late: 0, Early: 0, Misses: 0
396-> Hits: 36158, Late: 0, Early: 0, Misses: 0
397-> Hits: 10, Late: 0, Early: 0, Misses: 0
398-> Hits: 1216, Late: 0, Early: 0, Misses: 0
39d-> Hits: 7549, Late: 10525, Early: 0, Misses: 0
39f-> Hits: 18074, Late: 0, Early: 0, Misses: 0
3a2-> Hits: 9683, Late: 18036, Early: 0, Misses: 0
3a3-> Hits: 13449, Late: 2336, Early: 0, Misses: 0
3a5-> Hits: 17886, Late: 0, Early: 0, Misses: 0
3a6-> Hits: 1, Late: 0, Early: 0, Misses: 0
3a7-> Hits: 11085, Late: 19050, Early: 0, Misses: 0
3a9-> Hits: 16317, Late: 0, Early: 0, Misses: 0
3b0-> Hits: 1027, Late: 0, Early: 0, Misses: 0
3b1-> Hits: 19408, Late: 1984, Early: 0, Misses: 0
3b6-> Hits: 33915, Late: 0, Early: 0, Misses: 0
3b9-> Hits: 6627, Late: 12543, Early: 0, Misses: 0
3bb-> Hits: 897, Late: 17177, Early: 0, Misses: 0
3be-> Hits: 10901, Late: 2847, Early: 0, Misses: 0
3bf-> Hits: 30435, Late: 0, Early: 0, Misses: 0
3c0-> Hits: 21780, Late: 14190, Early: 0, Misses: 0
3c6-> Hits: 0, Late: 18074, Early: 0, Misses: 0
3c8-> Hits: 5639, Late: 12435, Early: 0, Misses: 0
3cc-> Hits: 5593, Late: 2368, Early: 0, Misses: 0
3d1-> Hits: 22492, Late: 0, Early: 0, Misses: 0
3d2-> Hits: 9580, Late: 0, Early: 0, Misses: 0
3d3-> Hits: 25827, Late: 0, Early: 0, Misses: 0
3d6-> Hits: 4497, Late: 2244, Early: 0, Misses: 0
3d8-> Hits: 15897, Late: 1651, Early: 0, Misses: 0
3d9-> Hits: 12048, Late: 11876, Early: 0, Misses: 0
3da-> Hits: 17956, Late: 0, Early: 0, Misses: 0
3db-> Hits: 30623, Late: 1015, Early: 0, Misses: 0
3dd-> Hits: 18074, Late: 0, Early: 0, Misses: 0
3df-> Hits: 7311, Late: 2287, Early: 0, Misses: 0
3e1-> Hits: 18074, Late: 0, Early: 0, Misses: 0
3e4-> Hits: 18074, Late: 0, Early: 0, Misses: 0
3e6-> Hits: 12451, Late: 17024, Early: 0, Misses: 0
3ea-> Hits: 8240, Late: 0, Early: 0, Misses: 0
3eb-> Hits: 3513, Late: 0, Early: 0, Misses: 0
3ec-> Hits: 20352, Late: 4000, Early: 0, Misses: 0
3ee-> Hits: 35556, Late: 0, Early: 0, Misses: 0
3ef-> Hits: 7002, Late: 11072, Early: 0, Misses: 0
3f0-> Hits: 6074, Late: 12000, Early: 0, Misses: 0
3f1-> Hits: 16844, Late: 1204, Early: 0, Misses: 0
3f4-> Hits: 11252, Late: 2747, Early: 0, Misses: 0
3f9-> Hits: 11223, Late: 0, Early: 0, Misses: 0
3fd-> Hits: 15056, Late: 0, Early: 0, Misses: 0
3fe-> Hits: 19455, Late: 0, Early: 0, Misses: 0
400-> Hits: 4826, Late: 13248, Early: 0, Misses: 0
403-> Hits: 7011, Late: 11063, Early: 0, Misses: 0
404-> Hits: 17393, Late: 0, Early: 0, Misses: 0
407-> Hits: 23461, Late: 0, Early: 0, Misses: 0
408-> Hits: 8637, Late: 3002, Early: 0, Misses: 0
40a-> Hits: 15806, Late: 0, Early: 0, Misses: 0
40c-> Hits: 14831, Late: 18649, Early: 0, Misses: 0
411-> Hits: 44303, Late: 4624, Early: 0, Misses: 0
413-> Hits: 14059, Late: 0, Early: 0, Misses: 0
417-> Hits: 7315, Late: 0, Early: 0, Misses: 0
418-> Hits: 36148, Late: 0, Early: 0, Misses: 0
41b-> Hits: 5435, Late: 12639, Early: 0, Misses: 0
41d-> Hits: 17193, Late: 0, Early: 0, Misses: 0
41f-> Hits: 976, Late: 17098, Early: 0, Misses: 0
420-> Hits: 19320, Late: 5641, Early: 0, Misses: 0
421-> Hits: 18074, Late: 0, Early: 0, Misses: 0
423-> Hits: 0, Late: 1, Early: 0, Misses: 0
424-> Hits: 7050, Late: 0, Early: 0, Misses: 0
425-> Hits: 8761, Late: 0, Early: 0, Misses: 0
42a-> Hits: 0, Late: 1, Early: 0, Misses: 0
42c-> Hits: 7396, Late: 1887, Early: 0, Misses: 0
42e-> Hits: 26329, Late: 3621, Early: 0, Misses: 0
42f-> Hits: 27523, Late: 0, Early: 0, Misses: 0
432-> Hits: 18074, Late: 0, Early: 0, Misses: 0
433-> Hits: 18074, Late: 0, Early: 0, Misses: 0
435-> Hits: 10066, Late: 13466, Early: 0, Misses: 0
437-> Hits: 18074, Late: 0, Early: 0, Misses: 0
43a-> Hits: 11426, Late: 1214, Early: 0, Misses: 0
43b-> Hits: 11916, Late: 2703, Early: 0, Misses: 0
43c-> Hits: 16477, Late: 0, Early: 0, Misses: 0
43e-> Hits: 15905, Late: 0, Early: 0, Misses: 0
43f-> Hits: 18074, Late: 0, Early: 0, Misses: 0
440-> Hits: 18074, Late: 18047, Early: 0, Misses: 0
445-> Hits: 4192, Late: 13882, Early: 0, Misses: 0
446-> Hits: 18560, Late: 0, Early: 0, Misses: 0
447-> Hits: 14226, Late: 1376, Early: 0, Misses: 0
449-> Hits: 1768, Late: 0, Early: 0, Misses: 0
44b-> Hits: 8690, Late: 0, Early: 0, Misses: 0
44c-> Hits: 14088, Late: 2045, Early: 0, Misses: 0
44e-> Hits: 29, Late: 18035, Early: 0, Misses: 0
450-> Hits: 9288, Late: 2656, Early: 0, Misses: 0
452-> Hits: 18074, Late: 0, Early: 0, Misses: 0
453-> Hits: 16273, Late: 0, Early: 0, Misses: 0
456-> Hits: 8666, Late: 0, Early: 0, Misses: 0
457-> Hits: 10238, Late: 0, Early: 0, Misses: 0
45c-> Hits: 17623, Late: 348, Early: 0, Misses: 0
45e-> Hits: 17, Late: 17112, Early: 0, Misses: 945
460-> Hits: 15328, Late: 0, Early: 0, Misses: 0
462-> Hits: 12117, Late: 2873, Early: 0, Misses: 0
463-> Hits: 34158, Late: 1990, Early: 0, Misses: 0
469-> Hits: 10988, Late: 0, Early: 0, Misses: 0
46c-> Hits: 28, Late: 18046, Early: 0, Misses: 0
46e-> Hits: 18074, Late: 0, Early: 0, Misses: 0
471-> Hits: 8468, Late: 946, Early: 0, Misses: 0
476-> Hits: 1542, Late: 0, Early: 0, Misses: 0
477-> Hits: 15553, Late: 17682, Early: 0, Misses: 0
47a-> Hits: 24027, Late: 1623, Early: 0, Misses: 0
47e-> Hits: 4657, Late: 13417, Early: 0, Misses: 0
480-> Hits: 74, Late: 18000, Early: 0, Misses: 0
482-> Hits: 1308, Late: 4450, Early: 0, Misses: 93
483-> Hits: 31686, Late: 0, Early: 0, Misses: 0
485-> Hits: 3636, Late: 2253, Early: 0, Misses: 0
488-> Hits: 5406, Late: 12668, Early: 0, Misses: 0
48c-> Hits: 11458, Late: 0, Early: 0, Misses: 0
48f-> Hits: 11262, Late: 0, Early: 0, Misses: 0
491-> Hits: 3884, Late: 0, Early: 0, Misses: 0
493-> Hits: 18074, Late: 0, Early: 0, Misses: 0
496-> Hits: 7606, Late: 10468, Early: 0, Misses: 0
49b-> Hits: 9755, Late: 0, Early: 0, Misses: 0
49d-> Hits: 18074, Late: 0, Early: 0, Misses: 0
49e-> Hits: 6179, Late: 2510, Early: 0, Misses: 0
4a0-> Hits: 7756, Late: 1890, Early: 0, Misses: 0
4a5-> Hits: 32197, Late: 2098, Early: 0, Misses: 29
4a9-> Hits: 5548, Late: 0, Early: 0, Misses: 0
4aa-> Hits: 18074, Late: 0, Early: 0, Misses: 0
4ae-> Hits: 18074, Late: 0, Early: 0, Misses: 0
4af-> Hits: 15699, Late: 0, Early: 0, Misses: 0
4b1-> Hits: 23672, Late: 12476, Early: 0, Misses: 0
4b2-> Hits: 7927, Late: 0, Early: 0, Misses: 0
4b6-> Hits: 29061, Late: 6027, Early: 0, Misses: 15342
4b8-> Hits: 18074, Late: 0, Early: 0, Misses: 0
4be-> Hits: 4932, Late: 2639, Early: 0, Misses: 0
4bf-> Hits: 19392, Late: 1575, Early: 0, Misses: 1229
4c3-> Hits: 15404, Late: 1087, Early: 0, Misses: 0
4c5-> Hits: 16173, Late: 0, Early: 0, Misses: 0
4c8-> Hits: 17344, Late: 1, Early: 0, Misses: 0
4c9-> Hits: 5049, Late: 13025, Early: 0, Misses: 0
4cd-> Hits: 18074, Late: 0, Early: 0, Misses: 0
4ce-> Hits: 23646, Late: 2342, Early: 0, Misses: 0
4d0-> Hits: 18074, Late: 0, Early: 0, Misses: 0
4d2-> Hits: 1094, Late: 16980, Early: 0, Misses: 0
4d7-> Hits: 18074, Late: 0, Early: 0, Misses: 0
4d9-> Hits: 21786, Late: 0, Early: 0, Misses: 0
4de-> Hits: 17113, Late: 13798, Early: 0, Misses: 0
4df-> Hits: 17757, Late: 0, Early: 0, Misses: 0
4e0-> Hits: 2323, Late: 1607, Early: 0, Misses: 618
4e3-> Hits: 24067, Late: 5170, Early: 0, Misses: 0
4e8-> Hits: 14516, Late: 0, Early: 0, Misses: 0
4ea-> Hits: 9281, Late: 0, Early: 0, Misses: 0
4eb-> Hits: 17876, Late: 0, Early: 0, Misses: 0
4ed-> Hits: 3013, Late: 0, Early: 0, Misses: 0
4ef-> Hits: 2986, Late: 2389, Early: 0, Misses: 1730
4f2-> Hits: 19924, Late: 13508, Early: 0, Misses: 0
4f7-> Hits: 24948, Late: 3010, Early: 0, Misses: 0
4f9-> Hits: 12369, Late: 0, Early: 0, Misses: 0
4fc-> Hits: 29885, Late: 0, Early: 0, Misses: 0
502-> Hits: 27235, Late: 0, Early: 0, Misses: 0
504-> Hits: 17918, Late: 0, Early: 0, Misses: 156
507-> Hits: 2184, Late: 15882, Early: 0, Misses: 0
509-> Hits: 36148, Late: 0, Early: 0, Misses: 0
50a-> Hits: 5080, Late: 12994, Early: 0, Misses: 0
50c-> Hits: 1, Late: 0, Early: 0, Misses: 0
50e-> Hits: 4851, Late: 0, Early: 0, Misses: 0
510-> Hits: 7771, Late: 3841, Early: 0, Misses: 0
511-> Hits: 12872, Late: 2584, Early: 0, Misses: 0
513-> Hits: 13049, Late: 671, Early: 0, Misses: 0
516-> Hits: 18074, Late: 0, Early: 0, Misses: 0
518-> Hits: 17657, Late: 0, Early: 0, Misses: 0
51c-> Hits: 17650, Late: 1, Early: 0, Misses: 423
51e-> Hits: 36148, Late: 0, Early: 0, Misses: 0
520-> Hits: 14169, Late: 1410, Early: 0, Misses: 0
523-> Hits: 17191, Late: 0, Early: 0, Misses: 0
525-> Hits: 14879, Late: 1921, Early: 0, Misses: 0
527-> Hits: 2, Late: 18072, Early: 0, Misses: 0
52c-> Hits: 18207, Late: 17941, Early: 0, Misses: 0
52d-> Hits: 15499, Late: 2257, Early: 0, Misses: 0
530-> Hits: 18004, Late: 0, Early: 0, Misses: 0
533-> Hits: 17250, Late: 0, Early: 0, Misses: 0
534-> Hits: 16346, Late: 1487, Early: 0, Misses: 0
536-> Hits: 58, Late: 18016, Early: 0, Misses: 0
539-> Hits: 18074, Late: 0, Early: 0, Misses: 0
53b-> Hits: 28851, Late: 4360, Early: 0, Misses: 0
53c-> Hits: 324, Late: 4463, Early: 0, Misses: 0
53e-> Hits: 17959, Late: 0, Early: 0, Misses: 115
540-> Hits: 17488, Late: 0, Early: 0, Misses: 0
542-> Hits: 0, Late: 18074, Early: 0, Misses: 0
545-> Hits: 5200, Late: 2233, Early: 0, Misses: 0
546-> Hits: 13849, Late: 0, Early: 0, Misses: 0
547-> Hits: 31105, Late: 5043, Early: 0, Misses: 0
54a-> Hits: 12983, Late: 19260, Early: 0, Misses: 0
54b-> Hits: 12795, Late: 0, Early: 0, Misses: 0
550-> Hits: 16058, Late: 4629, Early: 0, Misses: 0
551-> Hits: 1482, Late: 2352, Early: 0, Misses: 0
553-> Hits: 18074, Late: 0, Early: 0, Misses: 0
557-> Hits: 8069, Late: 1841, Early: 0, Misses: 0
558-> Hits: 35543, Late: 0, Early: 0, Misses: 0
55b-> Hits: 17, Late: 18057, Early: 0, Misses: 0
55c-> Hits: 9838, Late: 2409, Early: 0, Misses: 28
55d-> Hits: 17963, Late: 0, Early: 0, Misses: 0
55e-> Hits: 17804, Late: 270, Early: 0, Misses: 0
561-> Hits: 1281, Late: 2468, Early: 0, Misses: 0
562-> Hits: 394, Late: 17680, Early: 0, Misses: 0
565-> Hits: 13138, Late: 0, Early: 0, Misses: 0
567-> Hits: 18074, Late: 0, Early: 0, Misses: 0
568-> Hits: 34529, Late: 0, Early: 0, Misses: 0
56b-> Hits: 33571, Late: 0, Early: 0, Misses: 11
56e-> Hits: 23, Late: 18051, Early: 0, Misses: 0
570-> Hits: 21482, Late: 13403, Early: 0, Misses: 0
573-> Hits: 10942, Late: 18649, Early: 0, Misses: 0
57a-> Hits: 18074, Late: 0, Early: 0, Misses: 0
57b-> Hits: 0, Late: 18074, Early: 0, Misses: 0
57c-> Hits: 17292, Late: 0, Early: 0, Misses: 0
57e-> Hits: 18074, Late: 0, Early: 0, Misses: 0
581-> Hits: 3, Late: 0, Early: 0, Misses: 0
583-> Hits: 5328, Late: 17600, Early: 0, Misses: 0
585-> Hits: 611, Late: 4004, Early: 0, Misses: 0
588-> Hits: 3247, Late: 0, Early: 0, Misses: 0
58a-> Hits: 18074, Late: 18074, Early: 0, Misses: 0
58d-> Hits: 14482, Late: 14022, Early: 0, Misses: 25
591-> Hits: 18074, Late: 0, Early: 0, Misses: 0
597-> Hits: 17491, Late: 0, Early: 0, Misses: 0
598-> Hits: 464, Late: 2154, Early: 0, Misses: 0
59a-> Hits: 15698, Late: 0, Early: 0, Misses: 0
59e-> Hits: 0, Late: 18074, Early: 0, Misses: 0
59f-> Hits: 24618, Late: 0, Early: 0, Misses: 0
5a0-> Hits: 18074, Late: 0, Early: 0, Misses: 0
5a4-> Hits: 421, Late: 17653, Early: 0, Misses: 0
5a6-> Hits: 1266, Late: 0, Early: 0, Misses: 0
5a9-> Hits: 14379, Late: 4661, Early: 0, Misses: 0
5ac-> Hits: 17764, Late: 0, Early: 0, Misses: 0
5ae-> Hits: 0, Late: 18074, Early: 0, Misses: 0
5af-> Hits: 13680, Late: 0, Early: 0, Misses: 0
5b1-> Hits: 18074, Late: 0, Early: 0, Misses: 0
5b3-> Hits: 7657, Late: 0, Early: 0, Misses: 0
5b7-> Hits: 887, Late: 17187, Early: 0, Misses: 0
5b8-> Hits: 18074, Late: 18074, Early: 0, Misses: 0
5b9-> Hits: 17690, Late: 0, Early: 0, Misses: 0
5bc-> Hits: 8900, Late: 0, Early: 0, Misses: 0
5c0-> Hits: 937, Late: 17137, Early: 0, Misses: 0
5c1-> Hits: 2865, Late: 0, Early: 0, Misses: 0
5c3-> Hits: 18074, Late: 0, Early: 0, Misses: 0
5c4-> Hits: 31624, Late: 1771, Early: 0, Misses: 0
5ca-> Hits: 0, Late: 18074, Early: 0, Misses: 0
5cd-> Hits: 6269, Late: 0, Early: 0, Misses: 0
5cf-> Hits: 1569, Late: 16505, Early: 0, Misses: 0
5d0-> Hits: 35704, Late: 444, Early: 0, Misses: 0
5d1-> Hits: 18074, Late: 0, Early: 0, Misses: 0
5d3-> Hits: 18074, Late: 0, Early: 0, Misses: 0
5d5-> Hits: 16028, Late: 11912, Early: 0, Misses: 0
5d8-> Hits: 14195, Late: 0, Early: 0, Misses: 0
5da-> Hits: 28414, Late: 2308, Early: 0, Misses: 0
5dc-> Hits: 18074, Late: 0, Early: 0, Misses: 0
5de-> Hits: 0, Late: 18074, Early: 0, Misses: 0
5e2-> Hits: 18074, Late: 0, Early: 0, Misses: 0
5e4-> Hits: 4946, Late: 31202, Early: 0, Misses: 0
5e9-> Hits: 15662, Late: 0, Early: 0, Misses: 0
5ea-> Hits: 30176, Late: 0, Early: 0, Misses: 0
5ef-> Hits: 25311, Late: 20372, Early: 0, Misses: 0
5f0-> Hits: 18074, Late: 0, Early: 0, Misses: 0
5f1-> Hits: 17515, Late: 0, Early: 0, Misses: 0
5f4-> Hits: 331, Late: 17743, Early: 0, Misses: 0
5f6-> Hits: 28773, Late: 0, Early: 0, Misses: 0
5fe-> Hits: 18074, Late: 0, Early: 0, Misses: 0
5ff-> Hits: 35958, Late: 25, Early: 0, Misses: 165
601-> Hits: 10030, Late: 0, Early: 0, Misses: 0
602-> Hits: 16648, Late: 0, Early: 0, Misses: 0
607-> Hits: 0, Late: 18074, Early: 0, Misses: 0
609-> Hits: 3565, Late: 14509, Early: 0, Misses: 0
60b-> Hits: 17598, Late: 0, Early: 0, Misses: 0
60e-> Hits: 16669, Late: 0, Early: 0, Misses: 0
60f-> Hits: 108, Late: 17966, Early: 0, Misses: 0
611-> Hits: 17058, Late: 0, Early: 0, Misses: 0
613-> Hits: 6437, Late: 11637, Early: 0, Misses: 0
618-> Hits: 18074, Late: 0, Early: 0, Misses: 0
619-> Hits: 0, Late: 18074, Early: 0, Misses: 0
61c-> Hits: 18740, Late: 0, Early: 0, Misses: 0
61f-> Hits: 159, Late: 4453, Early: 0, Misses: 0
621-> Hits: 42114, Late: 10265, Early: 0, Misses: 0
623-> Hits: 10556, Late: 3160, Early: 0, Misses: 0
626-> Hits: 4039, Late: 0, Early: 0, Misses: 0
62a-> Hits: 18074, Late: 0, Early: 0, Misses: 0
62b-> Hits: 7140, Late: 1920, Early: 0, Misses: 0
62d-> Hits: 33153, Late: 18073, Early: 0, Misses: 0
630-> Hits: 8012, Late: 0, Early: 0, Misses: 0
631-> Hits: 1, Late: 0, Early: 0, Misses: 0
632-> Hits: 1, Late: 0, Early: 0, Misses: 0
633-> Hits: 355, Late: 2295, Early: 0, Misses: 0
634-> Hits: 4569, Late: 0, Early: 0, Misses: 0
635-> Hits: 1, Late: 0, Early: 0, Misses: 0
637-> Hits: 1, Late: 0, Early: 0, Misses: 0
639-> Hits: 1, Late: 0, Early: 0, Misses: 0
63a-> Hits: 18074, Late: 0, Early: 0, Misses: 0
63b-> Hits: 1, Late: 0, Early: 0, Misses: 0
63c-> Hits: 5391, Late: 12683, Early: 0, Misses: 0
63d-> Hits: 15165, Late: 0, Early: 0, Misses: 0
63e-> Hits: 0, Late: 18074, Early: 0, Misses: 0
640-> Hits: 30654, Late: 5494, Early: 0, Misses: 0
641-> Hits: 24698, Late: 5297, Early: 0, Misses: 0
642-> Hits: 1, Late: 0, Early: 0, Misses: 0
643-> Hits: 1, Late: 0, Early: 0, Misses: 0
644-> Hits: 490, Late: 2367, Early: 0, Misses: 0
645-> Hits: 1, Late: 0, Early: 0, Misses: 0
647-> Hits: 17422, Late: 0, Early: 0, Misses: 0
649-> Hits: 1, Late: 0, Early: 0, Misses: 0
64b-> Hits: 17773, Late: 0, Early: 0, Misses: 0
64d-> Hits: 18074, Late: 0, Early: 0, Misses: 0
64e-> Hits: 3276, Late: 0, Early: 0, Misses: 3
64f-> Hits: 47096, Late: 1366, Early: 0, Misses: 0
654-> Hits: 24976, Late: 0, Early: 0, Misses: 0
656-> Hits: 74, Late: 18000, Early: 0, Misses: 0
659-> Hits: 633, Late: 17441, Early: 0, Misses: 0
65b-> Hits: 0, Late: 18074, Early: 0, Misses: 0
65c-> Hits: 6355, Late: 11719, Early: 0, Misses: 0
65e-> Hits: 17059, Late: 0, Early: 0, Misses: 0
660-> Hits: 18074, Late: 0, Early: 0, Misses: 0
661-> Hits: 30298, Late: 2097, Early: 0, Misses: 0
665-> Hits: 107, Late: 4462, Early: 0, Misses: 0
666-> Hits: 6013, Late: 12061, Early: 0, Misses: 0
668-> Hits: 18074, Late: 0, Early: 0, Misses: 0
66a-> Hits: 0, Late: 18074, Early: 0, Misses: 0
66c-> Hits: 7912, Late: 0, Early: 0, Misses: 0
66f-> Hits: 17586, Late: 0, Early: 0, Misses: 0
671-> Hits: 25449, Late: 10699, Early: 0, Misses: 0
674-> Hits: 16929, Late: 1642, Early: 0, Misses: 0
676-> Hits: 13836, Late: 2638, Early: 0, Misses: 0
677-> Hits: 1183, Late: 0, Early: 0, Misses: 0
678-> Hits: 773, Late: 2574, Early: 0, Misses: 0
679-> Hits: 12651, Late: 979, Early: 0, Misses: 0
67c-> Hits: 2060, Late: 0, Early: 0, Misses: 0
67e-> Hits: 17702, Late: 18074, Early: 0, Misses: 0
67f-> Hits: 18074, Late: 0, Early: 0, Misses: 0
681-> Hits: 25810, Late: 10338, Early: 0, Misses: 0
682-> Hits: 16531, Late: 0, Early: 0, Misses: 0
684-> Hits: 904, Late: 17170, Early: 0, Misses: 0
685-> Hits: 1, Late: 0, Early: 0, Misses: 0
686-> Hits: 5603, Late: 2946, Early: 0, Misses: 0
689-> Hits: 1995, Late: 2598, Early: 0, Misses: 0
68b-> Hits: 14417, Late: 0, Early: 0, Misses: 0
68d-> Hits: 31650, Late: 0, Early: 0, Misses: 0
68e-> Hits: 6068, Late: 30080, Early: 0, Misses: 0
695-> Hits: 5333, Late: 12741, Early: 0, Misses: 0
696-> Hits: 12117, Late: 0, Early: 0, Misses: 0
697-> Hits: 15703, Late: 0, Early: 0, Misses: 2371
698-> Hits: 0, Late: 18074, Early: 0, Misses: 0
69a-> Hits: 6141, Late: 2734, Early: 0, Misses: 0
69c-> Hits: 18074, Late: 0, Early: 0, Misses: 0
69d-> Hits: 4, Late: 18070, Early: 0, Misses: 0
6a5-> Hits: 18074, Late: 0, Early: 0, Misses: 0
6a7-> Hits: 0, Late: 18074, Early: 0, Misses: 0
6a8-> Hits: 17386, Late: 0, Early: 0, Misses: 0
6aa-> Hits: 17655, Late: 0, Early: 0, Misses: 0
6ac-> Hits: 29, Late: 18045, Early: 0, Misses: 0
6b3-> Hits: 142, Late: 17932, Early: 0, Misses: 0
6b5-> Hits: 0, Late: 18074, Early: 0, Misses: 0
6b7-> Hits: 69675, Late: 244, Early: 0, Misses: 1563
6b8-> Hits: 12814, Late: 2684, Early: 0, Misses: 0
6ba-> Hits: 1, Late: 0, Early: 0, Misses: 0
6bb-> Hits: 780, Late: 17294, Early: 0, Misses: 0
6be-> Hits: 8488, Late: 0, Early: 0, Misses: 0
6c0-> Hits: 12424, Late: 5650, Early: 0, Misses: 0
6c3-> Hits: 17885, Late: 0, Early: 0, Misses: 0
6c4-> Hits: 1028, Late: 0, Early: 0, Misses: 0
6c5-> Hits: 0, Late: 18074, Early: 0, Misses: 0
6c6-> Hits: 1265, Late: 16809, Early: 0, Misses: 0
6ca-> Hits: 17171, Late: 0, Early: 0, Misses: 0
6cb-> Hits: 8216, Late: 20276, Early: 0, Misses: 15839
6cc-> Hits: 13473, Late: 0, Early: 0, Misses: 0
6cd-> Hits: 17707, Late: 0, Early: 0, Misses: 0
6d0-> Hits: 17674, Late: 0, Early: 0, Misses: 0
6d3-> Hits: 8310, Late: 1649, Early: 0, Misses: 0
6d5-> Hits: 17893, Late: 18074, Early: 0, Misses: 0
6d9-> Hits: 42, Late: 18032, Early: 0, Misses: 0
6da-> Hits: 18120, Late: 18028, Early: 0, Misses: 0
6dc-> Hits: 4647, Late: 13427, Early: 0, Misses: 0
6de-> Hits: 50664, Late: 0, Early: 0, Misses: 0
6df-> Hits: 18074, Late: 0, Early: 0, Misses: 0
6e1-> Hits: 10828, Late: 2357, Early: 0, Misses: 0
6e3-> Hits: 16084, Late: 0, Early: 0, Misses: 0
6e4-> Hits: 19301, Late: 16847, Early: 0, Misses: 0
6e8-> Hits: 18074, Late: 0, Early: 0, Misses: 0
6eb-> Hits: 4834, Late: 13240, Early: 0, Misses: 0
6ed-> Hits: 12914, Late: 222, Early: 0, Misses: 0
6ef-> Hits: 18776, Late: 2310, Early: 0, Misses: 2109
6f0-> Hits: 17932, Late: 0, Early: 0, Misses: 0
6f1-> Hits: 8936, Late: 3287, Early: 0, Misses: 0
6f5-> Hits: 33816, Late: 0, Early: 0, Misses: 0
6f8-> Hits: 18004, Late: 0, Early: 0, Misses: 0
6ff-> Hits: 16738, Late: 1076, Early: 0, Misses: 0
701-> Hits: 16007, Late: 0, Early: 0, Misses: 0
702-> Hits: 3076, Late: 0, Early: 0, Misses: 0
703-> Hits: 18074, Late: 0, Early: 0, Misses: 0
704-> Hits: 12876, Late: 2310, Early: 0, Misses: 0
708-> Hits: 36148, Late: 0, Early: 0, Misses: 0
70a-> Hits: 1438, Late: 2357, Early: 0, Misses: 0
70b-> Hits: 8732, Late: 0, Early: 0, Misses: 0
70d-> Hits: 17235, Late: 0, Early: 0, Misses: 0
711-> Hits: 13739, Late: 0, Early: 0, Misses: 0
713-> Hits: 9818, Late: 1036, Early: 0, Misses: 0
716-> Hits: 14668, Late: 1907, Early: 0, Misses: 0
718-> Hits: 1277, Late: 0, Early: 0, Misses: 0
71a-> Hits: 18074, Late: 0, Early: 0, Misses: 0
71b-> Hits: 18074, Late: 0, Early: 0, Misses: 0
71e-> Hits: 17364, Late: 710, Early: 0, Misses: 0
720-> Hits: 4464, Late: 13610, Early: 0, Misses: 0
725-> Hits: 32397, Late: 0, Early: 0, Misses: 0
727-> Hits: 21602, Late: 7283, Early: 0, Misses: 0
72a-> Hits: 6191, Late: 11883, Early: 0, Misses: 0
72c-> Hits: 15798, Late: 1159, Early: 0, Misses: 0
731-> Hits: 18062, Late: 0, Early: 0, Misses: 0
734-> Hits: 833, Late: 0, Early: 0, Misses: 0
736-> Hits: 18074, Late: 0, Early: 0, Misses: 0
738-> Hits: 17084, Late: 0, Early: 0, Misses: 0
739-> Hits: 7227, Late: 10847, Early: 0, Misses: 0
73b-> Hits: 4613, Late: 13461, Early: 0, Misses: 0
73c-> Hits: 6, Late: 0, Early: 0, Misses: 0
73d-> Hits: 16187, Late: 1887, Early: 0, Misses: 0
73e-> Hits: 8376, Late: 2622, Early: 0, Misses: 0
740-> Hits: 6, Late: 0, Early: 0, Misses: 0
742-> Hits: 22285, Late: 0, Early: 0, Misses: 0
743-> Hits: 3, Late: 0, Early: 0, Misses: 0
746-> Hits: 1048, Late: 15, Early: 0, Misses: 0
747-> Hits: 9477, Late: 1882, Early: 0, Misses: 0
748-> Hits: 6432, Late: 0, Early: 0, Misses: 0
74c-> Hits: 14478, Late: 2153, Early: 0, Misses: 0
74d-> Hits: 17449, Late: 0, Early: 0, Misses: 0
74f-> Hits: 15781, Late: 0, Early: 0, Misses: 0
750-> Hits: 5541, Late: 12533, Early: 0, Misses: 0
751-> Hits: 18074, Late: 0, Early: 0, Misses: 0
753-> Hits: 18074, Late: 0, Early: 0, Misses: 0
754-> Hits: 18074, Late: 0, Early: 0, Misses: 0
756-> Hits: 9150, Late: 3215, Early: 0, Misses: 0
75b-> Hits: 12028, Late: 2280, Early: 0, Misses: 0
75c-> Hits: 5197, Late: 24, Early: 0, Misses: 0
75e-> Hits: 7, Late: 0, Early: 0, Misses: 0
760-> Hits: 18054, Late: 0, Early: 0, Misses: 20
762-> Hits: 17550, Late: 0, Early: 0, Misses: 0
764-> Hits: 18074, Late: 0, Early: 0, Misses: 0
765-> Hits: 2826, Late: 66, Early: 0, Misses: 0
769-> Hits: 5064, Late: 13010, Early: 0, Misses: 0
76f-> Hits: 5739, Late: 2255, Early: 0, Misses: 0
770-> Hits: 6401, Late: 11567, Early: 0, Misses: 0
772-> Hits: 31203, Late: 0, Early: 0, Misses: 0
773-> Hits: 18074, Late: 0, Early: 0, Misses: 0
777-> Hits: 2239, Late: 0, Early: 0, Misses: 0
77a-> Hits: 8298, Late: 0, Early: 0, Misses: 0
77b-> Hits: 18073, Late: 1, Early: 0, Misses: 0
77c-> Hits: 30337, Late: 621, Early: 0, Misses: 0
77d-> Hits: 0, Late: 1, Early: 0, Misses: 0
77f-> Hits: 7494, Late: 10580, Early: 0, Misses: 0
781-> Hits: 18074, Late: 0, Early: 0, Misses: 0
783-> Hits: 4689, Late: 0, Early: 0, Misses: 0
785-> Hits: 11335, Late: 2903, Early: 0, Misses: 0
787-> Hits: 11153, Late: 0, Early: 0, Misses: 0
789-> Hits: 14490, Late: 1587, Early: 0, Misses: 0
78f-> Hits: 35512, Late: 2071, Early: 0, Misses: 0
790-> Hits: 17777, Late: 0, Early: 0, Misses: 297
791-> Hits: 15552, Late: 2522, Early: 0, Misses: 0
794-> Hits: 6724, Late: 11350, Early: 0, Misses: 0
798-> Hits: 18074, Late: 0, Early: 0, Misses: 0
799-> Hits: 6249, Late: 3412, Early: 0, Misses: 0
79c-> Hits: 14617, Late: 0, Early: 0, Misses: 0
79d-> Hits: 6621, Late: 0, Early: 0, Misses: 0
79e-> Hits: 16590, Late: 807, Early: 0, Misses: 0
7a3-> Hits: 30, Late: 1, Early: 0, Misses: 0
7a4-> Hits: 18074, Late: 0, Early: 0, Misses: 0
7a5-> Hits: 34216, Late: 1931, Early: 0, Misses: 0
7a6-> Hits: 17727, Late: 0, Early: 0, Misses: 0
7a7-> Hits: 1244, Late: 61, Early: 0, Misses: 0
7a8-> Hits: 33, Late: 0, Early: 0, Misses: 0
7a9-> Hits: 8497, Late: 0, Early: 0, Misses: 0
7ac-> Hits: 5513, Late: 30635, Early: 0, Misses: 0
7b2-> Hits: 6650, Late: 3468, Early: 0, Misses: 0
7b7-> Hits: 9815, Late: 48, Early: 0, Misses: 0
7ba-> Hits: 36224, Late: 1257, Early: 0, Misses: 0
7bd-> Hits: 22882, Late: 275, Early: 0, Misses: 0
7bf-> Hits: 18074, Late: 0, Early: 0, Misses: 0
7c4-> Hits: 14201, Late: 2060, Early: 0, Misses: 567
7c5-> Hits: 17930, Late: 0, Early: 0, Misses: 144
7cc-> Hits: 18074, Late: 0, Early: 0, Misses: 0
7cd-> Hits: 4401, Late: 0, Early: 0, Misses: 0
7d2-> Hits: 0, Late: 17850, Early: 0, Misses: 0
7d3-> Hits: 13325, Late: 4749, Early: 0, Misses: 0
7d5-> Hits: 17781, Late: 0, Early: 0, Misses: 0
7d8-> Hits: 0, Late: 18074, Early: 0, Misses: 0
7da-> Hits: 34374, Late: 0, Early: 0, Misses: 0
7db-> Hits: 35, Late: 18039, Early: 0, Misses: 0
7dc-> Hits: 18067, Late: 0, Early: 0, Misses: 7
7dd-> Hits: 17999, Late: 0, Early: 0, Misses: 0
7e0-> Hits: 9019, Late: 3039, Early: 0, Misses: 0
7e3-> Hits: 9, Late: 0, Early: 0, Misses: 0
7e7-> Hits: 18074, Late: 0, Early: 0, Misses: 0
7e8-> Hits: 18074, Late: 0, Early: 0, Misses: 0
7eb-> Hits: 3531, Late: 18313, Early: 0, Misses: 0
7ec-> Hits: 13338, Late: 0, Early: 0, Misses: 0
7f0-> Hits: 1, Late: 0, Early: 0, Misses: 0
7f1-> Hits: 18074, Late: 0, Early: 0, Misses: 0
7f2-> Hits: 18074, Late: 0, Early: 0, Misses: 0
7f4-> Hits: 18074, Late: 0, Early: 0, Misses: 0
7f5-> Hits: 6699, Late: 2316, Early: 0, Misses: 453
7f7-> Hits: 11366, Late: 0, Early: 0, Misses: 0
7f9-> Hits: 261, Late: 17813, Early: 0, Misses: 0
7fd-> Hits: 18074, Late: 0, Early: 0, Misses: 0
804-> Hits: 18074, Late: 0, Early: 0, Misses: 0
807-> Hits: 4561, Late: 0, Early: 0, Misses: 0
808-> Hits: 15199, Late: 2875, Early: 0, Misses: 0
80c-> Hits: 2741, Late: 3768, Early: 0, Misses: 0
80d-> Hits: 18074, Late: 0, Early: 0, Misses: 0
810-> Hits: 15230, Late: 0, Early: 0, Misses: 0
813-> Hits: 10821, Late: 0, Early: 0, Misses: 0
818-> Hits: 12335, Late: 1616, Early: 0, Misses: 0
81a-> Hits: 18074, Late: 0, Early: 0, Misses: 0
81c-> Hits: 17973, Late: 0, Early: 0, Misses: 0
81d-> Hits: 18074, Late: 0, Early: 0, Misses: 0
81e-> Hits: 13411, Late: 1, Early: 0, Misses: 0
822-> Hits: 17992, Late: 1, Early: 0, Misses: 4
829-> Hits: 23549, Late: 0, Early: 0, Misses: 0
82c-> Hits: 10129, Late: 0, Early: 0, Misses: 0
82f-> Hits: 18074, Late: 0, Early: 0, Misses: 0
831-> Hits: 6260, Late: 2894, Early: 0, Misses: 0
834-> Hits: 1361, Late: 56, Early: 0, Misses: 0
835-> Hits: 18074, Late: 0, Early: 0, Misses: 0
836-> Hits: 15037, Late: 1107, Early: 0, Misses: 0
838-> Hits: 36148, Late: 0, Early: 0, Misses: 0
839-> Hits: 18074, Late: 0, Early: 0, Misses: 0
841-> Hits: 20142, Late: 0, Early: 0, Misses: 0
84a-> Hits: 24976, Late: 17622, Early: 0, Misses: 0
84f-> Hits: 18074, Late: 0, Early: 0, Misses: 0
851-> Hits: 15157, Late: 1, Early: 0, Misses: 0
854-> Hits: 36, Late: 0, Early: 0, Misses: 0
856-> Hits: 11275, Late: 1831, Early: 0, Misses: 0
857-> Hits: 18074, Late: 0, Early: 0, Misses: 0
85b-> Hits: 13152, Late: 2159, Early: 0, Misses: 0
85f-> Hits: 16529, Late: 0, Early: 0, Misses: 0
860-> Hits: 15253, Late: 2821, Early: 0, Misses: 0
862-> Hits: 2275, Late: 1, Early: 0, Misses: 0
864-> Hits: 8952, Late: 0, Early: 0, Misses: 0
865-> Hits: 8958, Late: 0, Early: 0, Misses: 0
866-> Hits: 9039, Late: 0, Early: 0, Misses: 0
869-> Hits: 18074, Late: 0, Early: 0, Misses: 0
86a-> Hits: 13723, Late: 2283, Early: 0, Misses: 0
86c-> Hits: 16441, Late: 0, Early: 0, Misses: 0
86f-> Hits: 18074, Late: 1, Early: 0, Misses: 0
873-> Hits: 18074, Late: 0, Early: 0, Misses: 0
876-> Hits: 31835, Late: 3156, Early: 0, Misses: 0
877-> Hits: 18074, Late: 0, Early: 0, Misses: 0
87e-> Hits: 17161, Late: 0, Early: 0, Misses: 0
87f-> Hits: 19200, Late: 16940, Early: 0, Misses: 0
886-> Hits: 4558, Late: 0, Early: 0, Misses: 0
889-> Hits: 11867, Late: 2438, Early: 0, Misses: 0
88a-> Hits: 18074, Late: 0, Early: 0, Misses: 0
88b-> Hits: 11540, Late: 287, Early: 0, Misses: 0
88c-> Hits: 35888, Late: 0, Early: 0, Misses: 0
88d-> Hits: 17090, Late: 0, Early: 0, Misses: 0
88f-> Hits: 7, Late: 0, Early: 0, Misses: 0
890-> Hits: 17759, Late: 1, Early: 0, Misses: 0
891-> Hits: 26360, Late: 330, Early: 0, Misses: 0
898-> Hits: 31531, Late: 1343, Early: 0, Misses: 0
89c-> Hits: 18074, Late: 0, Early: 0, Misses: 0
89d-> Hits: 13791, Late: 1797, Early: 0, Misses: 0
89e-> Hits: 18074, Late: 0, Early: 0, Misses: 0
8a2-> Hits: 6350, Late: 109, Early: 0, Misses: 0
8a5-> Hits: 15437, Late: 2306, Early: 0, Misses: 0
8ab-> Hits: 14645, Late: 2181, Early: 0, Misses: 0
8ac-> Hits: 16279, Late: 1705, Early: 0, Misses: 0
8b0-> Hits: 18214, Late: 0, Early: 0, Misses: 0
8b1-> Hits: 12360, Late: 0, Early: 0, Misses: 0
8b3-> Hits: 15828, Late: 2247, Early: 0, Misses: 0
8b5-> Hits: 3423, Late: 2159, Early: 0, Misses: 0
8b8-> Hits: 7894, Late: 0, Early: 0, Misses: 0
8ba-> Hits: 13840, Late: 16167, Early: 0, Misses: 0
8c0-> Hits: 195, Late: 17879, Early: 0, Misses: 0
8c2-> Hits: 36148, Late: 0, Early: 0, Misses: 0
8c3-> Hits: 18074, Late: 0, Early: 0, Misses: 0
8c4-> Hits: 2118, Late: 1917, Early: 0, Misses: 0
8c5-> Hits: 18074, Late: 0, Early: 0, Misses: 0
8c9-> Hits: 16583, Late: 0, Early: 0, Misses: 0
8ca-> Hits: 18074, Late: 0, Early: 0, Misses: 0
8cd-> Hits: 5, Late: 1, Early: 0, Misses: 0
8ce-> Hits: 6903, Late: 128, Early: 0, Misses: 0
8d1-> Hits: 1080, Late: 16994, Early: 0, Misses: 0
8d5-> Hits: 17605, Late: 0, Early: 0, Misses: 0
8d6-> Hits: 18501, Late: 17648, Early: 0, Misses: 0
8d7-> Hits: 17876, Late: 0, Early: 0, Misses: 0
8da-> Hits: 18074, Late: 0, Early: 0, Misses: 0
8db-> Hits: 21679, Late: 5170, Early: 0, Misses: 0
8df-> Hits: 18074, Late: 0, Early: 0, Misses: 0
8e3-> Hits: 30641, Late: 5507, Early: 0, Misses: 0
8e4-> Hits: 36461, Late: 15885, Early: 0, Misses: 0
8e6-> Hits: 2421, Late: 284, Early: 0, Misses: 0
8e9-> Hits: 7501, Late: 0, Early: 0, Misses: 0
8eb-> Hits: 30677, Late: 5471, Early: 0, Misses: 0
8ed-> Hits: 18074, Late: 0, Early: 0, Misses: 0
8ee-> Hits: 6520, Late: 11554, Early: 0, Misses: 0
8f1-> Hits: 17314, Late: 0, Early: 0, Misses: 0
8f5-> Hits: 17175, Late: 0, Early: 0, Misses: 0
8f7-> Hits: 31462, Late: 4686, Early: 0, Misses: 0
8fa-> Hits: 21006, Late: 73, Early: 0, Misses: 0
8fd-> Hits: 2732, Late: 15343, Early: 0, Misses: 0
900-> Hits: 18074, Late: 0, Early: 0, Misses: 0
902-> Hits: 18074, Late: 0, Early: 0, Misses: 0
905-> Hits: 408, Late: 17666, Early: 0, Misses: 0
906-> Hits: 1622, Late: 3703, Early: 0, Misses: 0
90a-> Hits: 13828, Late: 2405, Early: 0, Misses: 0
90b-> Hits: 7763, Late: 0, Early: 0, Misses: 0
90d-> Hits: 3981, Late: 0, Early: 0, Misses: 0
90f-> Hits: 18074, Late: 0, Early: 0, Misses: 0
910-> Hits: 54222, Late: 0, Early: 0, Misses: 0
911-> Hits: 6, Late: 0, Early: 0, Misses: 0
912-> Hits: 11130, Late: 0, Early: 0, Misses: 0
915-> Hits: 16217, Late: 1, Early: 0, Misses: 0
918-> Hits: 18306, Late: 17842, Early: 0, Misses: 0
919-> Hits: 18074, Late: 0, Early: 0, Misses: 0
91a-> Hits: 17433, Late: 0, Early: 0, Misses: 0
91c-> Hits: 32789, Late: 0, Early: 0, Misses: 0
91e-> Hits: 9230, Late: 0, Early: 0, Misses: 0
923-> Hits: 17710, Late: 0, Early: 0, Misses: 0
926-> Hits: 25865, Late: 4032, Early: 0, Misses: 0
927-> Hits: 18074, Late: 0, Early: 0, Misses: 0
929-> Hits: 30170, Late: 0, Early: 0, Misses: 0
930-> Hits: 35392, Late: 2791, Early: 0, Misses: 0
936-> Hits: 18074, Late: 0, Early: 0, Misses: 0
938-> Hits: 7911, Late: 10163, Early: 0, Misses: 0
939-> Hits: 18074, Late: 0, Early: 0, Misses: 0
93a-> Hits: 52426, Late: 0, Early: 0, Misses: 0
93c-> Hits: 17269, Late: 292, Early: 0, Misses: 0
93d-> Hits: 10633, Late: 2573, Early: 0, Misses: 0
93e-> Hits: 12140, Late: 0, Early: 0, Misses: 0
93f-> Hits: 21302, Late: 2285, Early: 0, Misses: 0
946-> Hits: 18074, Late: 0, Early: 0, Misses: 0
947-> Hits: 5755, Late: 0, Early: 0, Misses: 0
94b-> Hits: 2, Late: 0, Early: 0, Misses: 0
94e-> Hits: 11518, Late: 0, Early: 0, Misses: 0
94f-> Hits: 23857, Late: 12291, Early: 0, Misses: 0
952-> Hits: 5191, Late: 116, Early: 0, Misses: 0
954-> Hits: 7647, Late: 0, Early: 0, Misses: 0
956-> Hits: 16523, Late: 0, Early: 0, Misses: 0
957-> Hits: 17959, Late: 1, Early: 0, Misses: 0
959-> Hits: 10464, Late: 2296, Early: 0, Misses: 0
95c-> Hits: 1, Late: 0, Early: 0, Misses: 0
961-> Hits: 1, Late: 0, Early: 0, Misses: 0
962-> Hits: 29489, Late: 2251, Early: 0, Misses: 0
965-> Hits: 27293, Late: 3076, Early: 0, Misses: 0
966-> Hits: 11086, Late: 0, Early: 0, Misses: 0
967-> Hits: 14751, Late: 0, Early: 0, Misses: 0
968-> Hits: 17365, Late: 0, Early: 0, Misses: 0
969-> Hits: 8795, Late: 0, Early: 0, Misses: 0
96a-> Hits: 18074, Late: 0, Early: 0, Misses: 0
96e-> Hits: 11336, Late: 0, Early: 0, Misses: 0
970-> Hits: 16969, Late: 0, Early: 0, Misses: 0
971-> Hits: 11299, Late: 1270, Early: 0, Misses: 0
97c-> Hits: 18074, Late: 0, Early: 0, Misses: 0
97e-> Hits: 18069, Late: 0, Early: 0, Misses: 0
97f-> Hits: 1204, Late: 0, Early: 0, Misses: 0
981-> Hits: 13887, Late: 2275, Early: 0, Misses: 0
985-> Hits: 18074, Late: 0, Early: 0, Misses: 0
987-> Hits: 18875, Late: 15759, Early: 0, Misses: 0
98c-> Hits: 15509, Late: 0, Early: 0, Misses: 0
98f-> Hits: 30413, Late: 2009, Early: 0, Misses: 0
991-> Hits: 5972, Late: 12102, Early: 0, Misses: 0
992-> Hits: 14231, Late: 3099, Early: 0, Misses: 0
993-> Hits: 26284, Late: 0, Early: 0, Misses: 0
994-> Hits: 22684, Late: 68, Early: 0, Misses: 0
999-> Hits: 258, Late: 17817, Early: 0, Misses: 0
99a-> Hits: 717, Late: 0, Early: 0, Misses: 0
99b-> Hits: 18074, Late: 0, Early: 0, Misses: 0
99c-> Hits: 35774, Late: 0, Early: 0, Misses: 0
99e-> Hits: 15709, Late: 0, Early: 0, Misses: 0
99f-> Hits: 8059, Late: 10015, Early: 0, Misses: 0
9a4-> Hits: 34405, Late: 13525, Early: 0, Misses: 0
9a5-> Hits: 34389, Late: 0, Early: 0, Misses: 0
9a6-> Hits: 8674, Late: 13137, Early: 0, Misses: 0
9a9-> Hits: 11741, Late: 2042, Early: 0, Misses: 0
9aa-> Hits: 1708, Late: 15, Early: 0, Misses: 0
9af-> Hits: 34896, Late: 0, Early: 0, Misses: 0
9b1-> Hits: 18074, Late: 1, Early: 0, Misses: 0
9b2-> Hits: 10122, Late: 0, Early: 0, Misses: 0
9b4-> Hits: 5170, Late: 2419, Early: 0, Misses: 0
9b5-> Hits: 4228, Late: 2019, Early: 0, Misses: 0
9b9-> Hits: 11541, Late: 1169, Early: 0, Misses: 0
9ba-> Hits: 20256, Late: 12605, Early: 0, Misses: 0
9bc-> Hits: 18074, Late: 0, Early: 0, Misses: 0
9be-> Hits: 12579, Late: 5495, Early: 0, Misses: 0
9bf-> Hits: 29978, Late: 2927, Early: 0, Misses: 0
9c0-> Hits: 17718, Late: 356, Early: 0, Misses: 0
9c2-> Hits: 36148, Late: 0, Early: 0, Misses: 0
9c4-> Hits: 929, Late: 17146, Early: 0, Misses: 0
9c8-> Hits: 17795, Late: 0, Early: 0, Misses: 0
9c9-> Hits: 4241, Late: 0, Early: 0, Misses: 0
9ca-> Hits: 24520, Late: 0, Early: 0, Misses: 0
9ce-> Hits: 45237, Late: 21859, Early: 0, Misses: 0
9d2-> Hits: 7544, Late: 0, Early: 0, Misses: 0
9d5-> Hits: 17259, Late: 0, Early: 0, Misses: 0
9d6-> Hits: 17785, Late: 289, Early: 0, Misses: 0
9da-> Hits: 2065, Late: 16009, Early: 0, Misses: 0
9df-> Hits: 27639, Late: 2145, Early: 0, Misses: 0
9e2-> Hits: 17180, Late: 0, Early: 0, Misses: 0
9e5-> Hits: 6618, Late: 0, Early: 0, Misses: 0
9ea-> Hits: 9334, Late: 17281, Early: 0, Misses: 0
9eb-> Hits: 34895, Late: 0, Early: 0, Misses: 0
9ec-> Hits: 17462, Late: 0, Early: 0, Misses: 0
9ef-> Hits: 19786, Late: 13047, Early: 0, Misses: 0
9f0-> Hits: 18074, Late: 0, Early: 0, Misses: 0
9f1-> Hits: 4, Late: 1, Early: 0, Misses: 0
9f4-> Hits: 13761, Late: 2492, Early: 0, Misses: 0
9f5-> Hits: 12729, Late: 20, Early: 0, Misses: 0
9fa-> Hits: 16756, Late: 0, Early: 0, Misses: 0
9fb-> Hits: 18006, Late: 0, Early: 0, Misses: 0
9fd-> Hits: 1548, Late: 16530, Early: 0, Misses: 0
9fe-> Hits: 2315, Late: 0, Early: 0, Misses: 0
a01-> Hits: 8842, Late: 0, Early: 0, Misses: 0
a02-> Hits: 8895, Late: 0, Early: 0, Misses: 0
a03-> Hits: 5785, Late: 12289, Early: 0, Misses: 0
a05-> Hits: 14638, Late: 0, Early: 0, Misses: 0
a08-> Hits: 25359, Late: 2660, Early: 0, Misses: 0
a0a-> Hits: 8299, Late: 1691, Early: 0, Misses: 0
a0b-> Hits: 4835, Late: 22, Early: 0, Misses: 0
a0f-> Hits: 12757, Late: 0, Early: 0, Misses: 0
a12-> Hits: 17288, Late: 0, Early: 0, Misses: 0
a13-> Hits: 1381, Late: 0, Early: 0, Misses: 0
a17-> Hits: 5719, Late: 12355, Early: 0, Misses: 0
a18-> Hits: 18074, Late: 0, Early: 0, Misses: 0
a1a-> Hits: 12526, Late: 0, Early: 0, Misses: 0
a1b-> Hits: 59435, Late: 12383, Early: 0, Misses: 0
a1c-> Hits: 6968, Late: 3254, Early: 0, Misses: 0
a20-> Hits: 9167, Late: 2347, Early: 0, Misses: 0
a21-> Hits: 1969, Late: 0, Early: 0, Misses: 0
a2a-> Hits: 24064, Late: 0, Early: 0, Misses: 0
a2c-> Hits: 16056, Late: 0, Early: 0, Misses: 0
a2d-> Hits: 18074, Late: 0, Early: 0, Misses: 0
a30-> Hits: 3, Late: 0, Early: 0, Misses: 0
a31-> Hits: 3, Late: 0, Early: 0, Misses: 0
a32-> Hits: 4782, Late: 13296, Early: 0, Misses: 0
a33-> Hits: 18068, Late: 0, Early: 0, Misses: 6
a34-> Hits: 3, Late: 0, Early: 0, Misses: 0
a36-> Hits: 3, Late: 0, Early: 0, Misses: 0
a37-> Hits: 58189, Late: 0, Early: 0, Misses: 0
a38-> Hits: 3, Late: 0, Early: 0, Misses: 0
a3b-> Hits: 3763, Late: 0, Early: 0, Misses: 0
a3c-> Hits: 27321, Late: 2550, Early: 0, Misses: 0
a3f-> Hits: 18074, Late: 0, Early: 0, Misses: 0
a40-> Hits: 0, Late: 18051, Early: 0, Misses: 0
a41-> Hits: 18072, Late: 0, Early: 0, Misses: 0
a45-> Hits: 18074, Late: 0, Early: 0, Misses: 0
a46-> Hits: 894, Late: 0, Early: 0, Misses: 0
a48-> Hits: 5592, Late: 0, Early: 0, Misses: 0
a4a-> Hits: 20647, Late: 0, Early: 0, Misses: 0
a4b-> Hits: 24196, Late: 0, Early: 0, Misses: 0
a4c-> Hits: 25345, Late: 0, Early: 0, Misses: 0
a4d-> Hits: 9918, Late: 3, Early: 0, Misses: 0
a4e-> Hits: 26450, Late: 19839, Early: 0, Misses: 0
a52-> Hits: 16843, Late: 0, Early: 0, Misses: 0
a55-> Hits: 25989, Late: 1265, Early: 0, Misses: 0
a5a-> Hits: 1237, Late: 16838, Early: 0, Misses: 0
a5b-> Hits: 18074, Late: 0, Early: 0, Misses: 0
a5e-> Hits: 17380, Late: 0, Early: 0, Misses: 0
a5f-> Hits: 5273, Late: 12802, Early: 0, Misses: 0
a61-> Hits: 49, Late: 18025, Early: 0, Misses: 0
a63-> Hits: 18074, Late: 0, Early: 0, Misses: 0
a65-> Hits: 1, Late: 0, Early: 0, Misses: 0
a68-> Hits: 36147, Late: 0, Early: 0, Misses: 0
a69-> Hits: 14011, Late: 0, Early: 0, Misses: 0
a6e-> Hits: 7430, Late: 10645, Early: 0, Misses: 0
a6f-> Hits: 6233, Late: 11842, Early: 0, Misses: 0
a70-> Hits: 9083, Late: 0, Early: 0, Misses: 0
a73-> Hits: 11373, Late: 0, Early: 0, Misses: 0
a76-> Hits: 15848, Late: 0, Early: 0, Misses: 0
a78-> Hits: 8768, Late: 1988, Early: 0, Misses: 0
a79-> Hits: 965, Late: 0, Early: 0, Misses: 0
a7a-> Hits: 10896, Late: 0, Early: 0, Misses: 0
a80-> Hits: 1, Late: 0, Early: 0, Misses: 0
a81-> Hits: 5474, Late: 12601, Early: 0, Misses: 0
a82-> Hits: 1129, Late: 1689, Early: 0, Misses: 0
a83-> Hits: 18074, Late: 0, Early: 0, Misses: 0
a87-> Hits: 11280, Late: 3499, Early: 0, Misses: 0
a89-> Hits: 11346, Late: 0, Early: 0, Misses: 0
a8e-> Hits: 38389, Late: 2860, Early: 0, Misses: 0
a8f-> Hits: 6268, Late: 0, Early: 0, Misses: 0
a90-> Hits: 18074, Late: 0, Early: 0, Misses: 0
a93-> Hits: 18074, Late: 0, Early: 0, Misses: 0
a99-> Hits: 9725, Late: 0, Early: 0, Misses: 0
a9a-> Hits: 16683, Late: 0, Early: 0, Misses: 0
a9e-> Hits: 1, Late: 0, Early: 0, Misses: 0
a9f-> Hits: 18074, Late: 0, Early: 0, Misses: 0
aa2-> Hits: 7498, Late: 10577, Early: 0, Misses: 0
aa5-> Hits: 35423, Late: 0, Early: 0, Misses: 0
aa7-> Hits: 10703, Late: 5728, Early: 0, Misses: 0
aa8-> Hits: 18074, Late: 0, Early: 0, Misses: 0
aab-> Hits: 2, Late: 0, Early: 0, Misses: 0
aac-> Hits: 15629, Late: 887, Early: 0, Misses: 0
ab2-> Hits: 9897, Late: 12916, Early: 0, Misses: 0
ab3-> Hits: 2, Late: 0, Early: 0, Misses: 0
ab5-> Hits: 17390, Late: 0, Early: 0, Misses: 0
ab8-> Hits: 13677, Late: 2751, Early: 0, Misses: 0
abb-> Hits: 23862, Late: 9501, Early: 0, Misses: 0
abe-> Hits: 18074, Late: 0, Early: 0, Misses: 0
abf-> Hits: 11698, Late: 0, Early: 0, Misses: 0
ac0-> Hits: 17766, Late: 0, Early: 0, Misses: 0
ac2-> Hits: 25592, Late: 0, Early: 0, Misses: 0
ac7-> Hits: 32749, Late: 14129, Early: 0, Misses: 0
ac8-> Hits: 18073, Late: 0, Early: 0, Misses: 0
acc-> Hits: 17578, Late: 4661, Early: 0, Misses: 0
acd-> Hits: 18074, Late: 0, Early: 0, Misses: 0
ace-> Hits: 9027, Late: 0, Early: 0, Misses: 0
ad3-> Hits: 4869, Late: 0, Early: 0, Misses: 0
ad4-> Hits: 17828, Late: 0, Early: 0, Misses: 0
ad5-> Hits: 18074, Late: 0, Early: 0, Misses: 0
ad6-> Hits: 18074, Late: 0, Early: 0, Misses: 0
ad7-> Hits: 4839, Late: 13237, Early: 0, Misses: 0
adb-> Hits: 12093, Late: 2311, Early: 0, Misses: 0
adc-> Hits: 9787, Late: 0, Early: 0, Misses: 0
add-> Hits: 20823, Late: 3239, Early: 0, Misses: 0
ade-> Hits: 18088, Late: 0, Early: 0, Misses: 0
ae0-> Hits: 18181, Late: 0, Early: 0, Misses: 0
ae5-> Hits: 17568, Late: 1, Early: 0, Misses: 0
ae8-> Hits: 14, Late: 0, Early: 0, Misses: 0
aea-> Hits: 18074, Late: 0, Early: 0, Misses: 0
aeb-> Hits: 13046, Late: 0, Early: 0, Misses: 0
af0-> Hits: 22140, Late: 14002, Early: 0, Misses: 0
af4-> Hits: 31741, Late: 0, Early: 0, Misses: 0
af6-> Hits: 29919, Late: 0, Early: 0, Misses: 0
af7-> Hits: 18917, Late: 0, Early: 0, Misses: 0
af8-> Hits: 14376, Late: 0, Early: 0, Misses: 0
afc-> Hits: 12821, Late: 247, Early: 0, Misses: 0
afd-> Hits: 0, Late: 18064, Early: 0, Misses: 0
aff-> Hits: 17156, Late: 0, Early: 0, Misses: 0
b01-> Hits: 13635, Late: 1432, Early: 0, Misses: 0
b02-> Hits: 1223, Late: 0, Early: 0, Misses: 0
b03-> Hits: 3, Late: 0, Early: 0, Misses: 0
b06-> Hits: 16095, Late: 0, Early: 0, Misses: 0
b07-> Hits: 15932, Late: 834, Early: 0, Misses: 0
b0a-> Hits: 35611, Late: 18021, Early: 0, Misses: 0
b0c-> Hits: 18074, Late: 0, Early: 0, Misses: 0
b0f-> Hits: 107, Late: 0, Early: 0, Misses: 1
b10-> Hits: 16186, Late: 0, Early: 0, Misses: 0
b16-> Hits: 16856, Late: 1183, Early: 0, Misses: 0
b17-> Hits: 17104, Late: 0, Early: 0, Misses: 0
b19-> Hits: 17459, Late: 0, Early: 0, Misses: 0
b1a-> Hits: 13, Late: 18062, Early: 0, Misses: 0
b1d-> Hits: 16669, Late: 1404, Early: 0, Misses: 0
b24-> Hits: 11134, Late: 18074, Early: 0, Misses: 0
b25-> Hits: 13747, Late: 0, Early: 0, Misses: 0
b26-> Hits: 18074, Late: 0, Early: 0, Misses: 0
b28-> Hits: 20, Late: 18055, Early: 0, Misses: 0
b29-> Hits: 15949, Late: 0, Early: 0, Misses: 2125
b2d-> Hits: 15005, Late: 0, Early: 0, Misses: 0
b2e-> Hits: 1347, Late: 1666, Early: 0, Misses: 0
b30-> Hits: 17847, Late: 2, Early: 0, Misses: 117
b31-> Hits: 292, Late: 17783, Early: 0, Misses: 0
b32-> Hits: 18074, Late: 0, Early: 0, Misses: 0
b34-> Hits: 1014, Late: 0, Early: 0, Misses: 0
b35-> Hits: 17197, Late: 0, Early: 0, Misses: 0
b38-> Hits: 17736, Late: 0, Early: 0, Misses: 0
b3b-> Hits: 1936, Late: 4797, Early: 0, Misses: 0
b3f-> Hits: 18074, Late: 0, Early: 0, Misses: 0
b40-> Hits: 33, Late: 18041, Early: 0, Misses: 0
b41-> Hits: 18074, Late: 0, Early: 0, Misses: 0
b44-> Hits: 7958, Late: 1, Early: 0, Misses: 88
b45-> Hits: 26910, Late: 3057, Early: 0, Misses: 0
b4a-> Hits: 2, Late: 0, Early: 0, Misses: 0
b4c-> Hits: 2143, Late: 18074, Early: 0, Misses: 0
b4e-> Hits: 18074, Late: 0, Early: 0, Misses: 0
b52-> Hits: 2, Late: 0, Early: 0, Misses: 0
b53-> Hits: 2, Late: 0, Early: 0, Misses: 0
b54-> Hits: 2, Late: 0, Early: 0, Misses: 0
b55-> Hits: 2721, Late: 88, Early: 0, Misses: 0
b56-> Hits: 2, Late: 0, Early: 0, Misses: 0
b57-> Hits: 1370, Late: 2271, Early: 0, Misses: 0
b58-> Hits: 2, Late: 0, Early: 0, Misses: 0
b5a-> Hits: 2, Late: 0, Early: 0, Misses: 0
b5b-> Hits: 36, Late: 18038, Early: 0, Misses: 0
b5c-> Hits: 16727, Late: 0, Early: 0, Misses: 0
b5e-> Hits: 10619, Late: 0, Early: 0, Misses: 0
b5f-> Hits: 17498, Late: 0, Early: 0, Misses: 0
b63-> Hits: 13654, Late: 1707, Early: 0, Misses: 0
b69-> Hits: 720, Late: 0, Early: 0, Misses: 0
b6a-> Hits: 15501, Late: 3655, Early: 0, Misses: 4
b6b-> Hits: 14025, Late: 0, Early: 0, Misses: 0
b6c-> Hits: 803, Late: 2725, Early: 0, Misses: 14546
b6d-> Hits: 17974, Late: 0, Early: 0, Misses: 0
b72-> Hits: 6845, Late: 18074, Early: 0, Misses: 0
b75-> Hits: 9137, Late: 4323, Early: 0, Misses: 1198
b76-> Hits: 31903, Late: 0, Early: 0, Misses: 0
b7b-> Hits: 16422, Late: 891, Early: 0, Misses: 0
b7f-> Hits: 18074, Late: 0, Early: 0, Misses: 0
b81-> Hits: 14936, Late: 0, Early: 0, Misses: 9
b82-> Hits: 18189, Late: 6, Early: 0, Misses: 116
b85-> Hits: 18074, Late: 0, Early: 0, Misses: 0
b89-> Hits: 0, Late: 18074, Early: 0, Misses: 0
b8a-> Hits: 18074, Late: 0, Early: 0, Misses: 0
b8b-> Hits: 19188, Late: 16961, Early: 0, Misses: 0
b8e-> Hits: 17842, Late: 0, Early: 0, Misses: 0
b92-> Hits: 16018, Late: 0, Early: 0, Misses: 0
b96-> Hits: 16755, Late: 0, Early: 0, Misses: 0
b97-> Hits: 11579, Late: 1661, Early: 0, Misses: 0
b98-> Hits: 17927, Late: 1, Early: 0, Misses: 146
b9c-> Hits: 30718, Late: 2277, Early: 0, Misses: 0
b9d-> Hits: 3325, Late: 1637, Early: 0, Misses: 3028
b9e-> Hits: 18074, Late: 0, Early: 0, Misses: 0
ba0-> Hits: 16723, Late: 18074, Early: 0, Misses: 0
ba3-> Hits: 24806, Late: 2292, Early: 0, Misses: 0
ba8-> Hits: 18075, Late: 0, Early: 0, Misses: 0
ba9-> Hits: 10182, Late: 0, Early: 0, Misses: 0
bac-> Hits: 2797, Late: 1898, Early: 0, Misses: 86
bad-> Hits: 18074, Late: 0, Early: 0, Misses: 0
baf-> Hits: 31768, Late: 0, Early: 0, Misses: 1
bb0-> Hits: 8, Late: 0, Early: 0, Misses: 0
bb5-> Hits: 10754, Late: 0, Early: 0, Misses: 0
bb7-> Hits: 0, Late: 18074, Early: 0, Misses: 0
bb8-> Hits: 1841, Late: 16217, Early: 0, Misses: 0
bbf-> Hits: 2154, Late: 0, Early: 0, Misses: 0
bc1-> Hits: 35720, Late: 0, Early: 0, Misses: 0
bc4-> Hits: 13734, Late: 410, Early: 0, Misses: 0
bc6-> Hits: 1502, Late: 0, Early: 0, Misses: 22
bc8-> Hits: 6, Late: 0, Early: 0, Misses: 0
bc9-> Hits: 17054, Late: 0, Early: 0, Misses: 0
bca-> Hits: 50790, Late: 0, Early: 0, Misses: 0
bce-> Hits: 9255, Late: 21133, Early: 0, Misses: 0
bd1-> Hits: 14214, Late: 1383, Early: 0, Misses: 0
bd4-> Hits: 3, Late: 0, Early: 0, Misses: 0
bd6-> Hits: 31021, Late: 2235, Early: 0, Misses: 0
bdd-> Hits: 23971, Late: 0, Early: 0, Misses: 2
[...]
c58-> Hits: 21, Late: 0, Early: 0, Misses: 0
c5b-> Hits: 12876, Late: 2868, Early: 0, Misses: 0
c5c-> Hits: 8319, Late: 0, Early: 0, Misses: 0
c5e-> Hits: 18074, Late: 0, Early: 0, Misses: 0
c65-> Hits: 18074, Late: 0, Early: 0, Misses: 0
c66-> Hits: 20, Late: 18073, Early: 0, Misses: 0
c67-> Hits: 18074, Late: 0, Early: 0, Misses: 0
c6b-> Hits: 18076, Late: 0, Early: 0, Misses: 0
c6c-> Hits: 48, Late: 18026, Early: 0, Misses: 0
c6d-> Hits: 9502, Late: 11312, Early: 0, Misses: 0
c70-> Hits: 18076, Late: 0, Early: 0, Misses: 0
c71-> Hits: 3, Late: 0, Early: 0, Misses: 0
c72-> Hits: 11623, Late: 2299, Early: 0, Misses: 0
c74-> Hits: 18074, Late: 0, Early: 0, Misses: 0
c7c-> Hits: 13018, Late: 0, Early: 0, Misses: 0
c7e-> Hits: 18074, Late: 0, Early: 0, Misses: 0
c7f-> Hits: 16908, Late: 17807, Early: 0, Misses: 0
c81-> Hits: 18074, Late: 0, Early: 0, Misses: 0
c84-> Hits: 5091, Late: 12983, Early: 0, Misses: 0
c86-> Hits: 18074, Late: 1, Early: 0, Misses: 0
c89-> Hits: 6113, Late: 0, Early: 0, Misses: 0
c8a-> Hits: 17972, Late: 0, Early: 0, Misses: 0
c8e-> Hits: 14685, Late: 20020, Early: 0, Misses: 0
c8f-> Hits: 36148, Late: 1, Early: 0, Misses: 0
c93-> Hits: 18076, Late: 0, Early: 0, Misses: 0
c97-> Hits: 17309, Late: 0, Early: 0, Misses: 0
c9c-> Hits: 17902, Late: 0, Early: 0, Misses: 0
c9d-> Hits: 18582, Late: 17567, Early: 0, Misses: 0
ca0-> Hits: 6463, Late: 2312, Early: 0, Misses: 0
ca2-> Hits: 15932, Late: 0, Early: 0, Misses: 0
ca4-> Hits: 18074, Late: 0, Early: 0, Misses: 0
ca7-> Hits: 2030, Late: 0, Early: 0, Misses: 0
cac-> Hits: 17944, Late: 0, Early: 0, Misses: 130
caf-> Hits: 10715, Late: 1199, Early: 0, Misses: 0
cb1-> Hits: 15929, Late: 0, Early: 0, Misses: 0
cb4-> Hits: 629, Late: 18019, Early: 0, Misses: 21
cb8-> Hits: 15199, Late: 0, Early: 0, Misses: 0
cb9-> Hits: 18074, Late: 0, Early: 0, Misses: 0
cba-> Hits: 17824, Late: 0, Early: 0, Misses: 238
cbc-> Hits: 4493, Late: 13581, Early: 0, Misses: 0
cbd-> Hits: 17469, Late: 0, Early: 0, Misses: 0
cc1-> Hits: 15279, Late: 0, Early: 0, Misses: 0
cc2-> Hits: 128, Late: 14381, Early: 0, Misses: 3565
cc6-> Hits: 23851, Late: 12298, Early: 0, Misses: 0
cc7-> Hits: 18074, Late: 0, Early: 0, Misses: 0
cc9-> Hits: 3455, Late: 0, Early: 0, Misses: 0
ccb-> Hits: 2, Late: 0, Early: 0, Misses: 0
ccf-> Hits: 1555, Late: 0, Early: 0, Misses: 0
cd1-> Hits: 31137, Late: 0, Early: 0, Misses: 232
cd3-> Hits: 18074, Late: 0, Early: 0, Misses: 0
cd4-> Hits: 25343, Late: 10805, Early: 0, Misses: 0
cd8-> Hits: 9418, Late: 3697, Early: 0, Misses: 0
cd9-> Hits: 9115, Late: 18074, Early: 0, Misses: 0
cdc-> Hits: 13491, Late: 0, Early: 0, Misses: 0
cdd-> Hits: 12041, Late: 0, Early: 0, Misses: 0
cde-> Hits: 8610, Late: 2011, Early: 0, Misses: 0
ce5-> Hits: 13228, Late: 0, Early: 0, Misses: 0
ce6-> Hits: 3, Late: 0, Early: 0, Misses: 0
ce7-> Hits: 7216, Late: 0, Early: 0, Misses: 0
cea-> Hits: 18074, Late: 0, Early: 0, Misses: 0
ceb-> Hits: 19, Late: 0, Early: 0, Misses: 0
cec-> Hits: 14450, Late: 0, Early: 0, Misses: 0
cef-> Hits: 5407, Late: 12667, Early: 0, Misses: 0
cf1-> Hits: 12090, Late: 0, Early: 0, Misses: 0
cf4-> Hits: 20723, Late: 6216, Early: 0, Misses: 0
cf7-> Hits: 890, Late: 0, Early: 0, Misses: 10
cfa-> Hits: 17295, Late: 0, Early: 0, Misses: 0
cff-> Hits: 36862, Late: 5266, Early: 0, Misses: 12094
d01-> Hits: 1, Late: 0, Early: 0, Misses: 0
d02-> Hits: 12075, Late: 2008, Early: 0, Misses: 0
d05-> Hits: 1415, Late: 0, Early: 0, Misses: 0
d07-> Hits: 22124, Late: 0, Early: 0, Misses: 0
d08-> Hits: 17593, Late: 0, Early: 0, Misses: 0
d09-> Hits: 3, Late: 0, Early: 0, Misses: 0
d0c-> Hits: 1055, Late: 17020, Early: 0, Misses: 0
d0e-> Hits: 15617, Late: 0, Early: 0, Misses: 93
d0f-> Hits: 6049, Late: 12025, Early: 0, Misses: 0
d10-> Hits: 106, Late: 0, Early: 0, Misses: 0
d11-> Hits: 28811, Late: 0, Early: 0, Misses: 0
d14-> Hits: 27446, Late: 2335, Early: 0, Misses: 0
d15-> Hits: 7188, Late: 0, Early: 0, Misses: 0
d16-> Hits: 53, Late: 2257, Early: 0, Misses: 15764
d19-> Hits: 5047, Late: 13156, Early: 0, Misses: 0
d1e-> Hits: 34135, Late: 0, Early: 0, Misses: 0
d1f-> Hits: 7779, Late: 0, Early: 0, Misses: 0
d22-> Hits: 17224, Late: 0, Early: 0, Misses: 0
d24-> Hits: 6485, Late: 11589, Early: 0, Misses: 0
d27-> Hits: 4735, Late: 2208, Early: 0, Misses: 0
d29-> Hits: 27888, Late: 2636, Early: 0, Misses: 245
d2b-> Hits: 17668, Late: 0, Early: 0, Misses: 0
d2c-> Hits: 11501, Late: 955, Early: 0, Misses: 0
d2d-> Hits: 18074, Late: 0, Early: 0, Misses: 0
d2f-> Hits: 17364, Late: 0, Early: 0, Misses: 0
d30-> Hits: 12617, Late: 0, Early: 0, Misses: 0
d31-> Hits: 96, Late: 850, Early: 0, Misses: 17128
d32-> Hits: 18075, Late: 0, Early: 0, Misses: 0
d33-> Hits: 1034, Late: 0, Early: 0, Misses: 0
d34-> Hits: 18074, Late: 0, Early: 0, Misses: 0
d37-> Hits: 19058, Late: 17091, Early: 0, Misses: 0
d38-> Hits: 8031, Late: 10043, Early: 0, Misses: 0
d3c-> Hits: 2002, Late: 0, Early: 0, Misses: 0
d3d-> Hits: 7587, Late: 2624, Early: 0, Misses: 0
d40-> Hits: 18074, Late: 0, Early: 0, Misses: 0
d41-> Hits: 22956, Late: 11991, Early: 0, Misses: 0
d43-> Hits: 12280, Late: 0, Early: 0, Misses: 1
d48-> Hits: 12084, Late: 0, Early: 0, Misses: 0
d49-> Hits: 18075, Late: 0, Early: 0, Misses: 0
d4a-> Hits: 18074, Late: 1, Early: 0, Misses: 0
d4b-> Hits: 344, Late: 344, Early: 0, Misses: 17386
d4d-> Hits: 13100, Late: 0, Early: 0, Misses: 0
d50-> Hits: 5362, Late: 12715, Early: 0, Misses: 0
d52-> Hits: 8593, Late: 0, Early: 0, Misses: 0
d53-> Hits: 18074, Late: 0, Early: 0, Misses: 0
d55-> Hits: 5161, Late: 3498, Early: 0, Misses: 0
d56-> Hits: 15862, Late: 0, Early: 0, Misses: 0
d5c-> Hits: 18069, Late: 0, Early: 0, Misses: 0
d5e-> Hits: 725, Late: 0, Early: 0, Misses: 0
d63-> Hits: 18769, Late: 0, Early: 0, Misses: 0
d64-> Hits: 23681, Late: 0, Early: 0, Misses: 239
d65-> Hits: 12118, Late: 0, Early: 0, Misses: 0
d68-> Hits: 17729, Late: 0, Early: 0, Misses: 345
d69-> Hits: 384, Late: 17691, Early: 0, Misses: 0
d6c-> Hits: 18126, Late: 0, Early: 0, Misses: 0
d6d-> Hits: 18074, Late: 0, Early: 0, Misses: 0
d6e-> Hits: 11736, Late: 2551, Early: 0, Misses: 0
d6f-> Hits: 238, Late: 0, Early: 0, Misses: 2
d70-> Hits: 10037, Late: 18074, Early: 0, Misses: 0
d74-> Hits: 6989, Late: 0, Early: 0, Misses: 0
d76-> Hits: 18872, Late: 0, Early: 0, Misses: 0
d79-> Hits: 18074, Late: 0, Early: 0, Misses: 0
d7b-> Hits: 18074, Late: 0, Early: 0, Misses: 0
d7c-> Hits: 1320, Late: 16755, Early: 0, Misses: 0
d7e-> Hits: 113, Late: 17961, Early: 0, Misses: 0
d82-> Hits: 25619, Late: 0, Early: 0, Misses: 0
d87-> Hits: 14263, Late: 0, Early: 0, Misses: 0
d8a-> Hits: 9358, Late: 1726, Early: 0, Misses: 0
d8e-> Hits: 11, Late: 14083, Early: 0, Misses: 3980
d8f-> Hits: 30960, Late: 5188, Early: 0, Misses: 0
d90-> Hits: 100, Late: 0, Early: 0, Misses: 0
d94-> Hits: 32465, Late: 0, Early: 0, Misses: 0
d98-> Hits: 16014, Late: 0, Early: 0, Misses: 0
d99-> Hits: 113, Late: 0, Early: 0, Misses: 0
d9c-> Hits: 22159, Late: 30554, Early: 0, Misses: 0
d9d-> Hits: 17257, Late: 0, Early: 0, Misses: 0
da1-> Hits: 27536, Late: 2658, Early: 0, Misses: 0
da5-> Hits: 4400, Late: 0, Early: 0, Misses: 0
da6-> Hits: 4, Late: 0, Early: 0, Misses: 0
da7-> Hits: 443, Late: 17631, Early: 0, Misses: 0
dab-> Hits: 5766, Late: 0, Early: 0, Misses: 0
daf-> Hits: 1109, Late: 83, Early: 0, Misses: 0
db2-> Hits: 18796, Late: 4340, Early: 0, Misses: 132
db3-> Hits: 4823, Late: 13252, Early: 0, Misses: 0
db4-> Hits: 864, Late: 0, Early: 0, Misses: 0
db8-> Hits: 8606, Late: 0, Early: 0, Misses: 0
dbd-> Hits: 11600, Late: 2583, Early: 0, Misses: 0
dcb-> Hits: 26167, Late: 0, Early: 0, Misses: 0
dcd-> Hits: 5976, Late: 2493, Early: 0, Misses: 0
dcf-> Hits: 12400, Late: 2354, Early: 0, Misses: 0
dd3-> Hits: 11, Late: 0, Early: 0, Misses: 0
dd4-> Hits: 11985, Late: 0, Early: 0, Misses: 0
dd6-> Hits: 8432, Late: 0, Early: 0, Misses: 0
dd8-> Hits: 17582, Late: 0, Early: 0, Misses: 0
dd9-> Hits: 11490, Late: 1978, Early: 0, Misses: 0
ddc-> Hits: 18074, Late: 0, Early: 0, Misses: 0
dde-> Hits: 29309, Late: 1259, Early: 0, Misses: 0
de3-> Hits: 1308, Late: 16767, Early: 0, Misses: 0
de5-> Hits: 13655, Late: 0, Early: 0, Misses: 0
de8-> Hits: 14100, Late: 0, Early: 0, Misses: 0
de9-> Hits: 17059, Late: 0, Early: 0, Misses: 0
dea-> Hits: 18074, Late: 0, Early: 0, Misses: 0
dec-> Hits: 11528, Late: 0, Early: 0, Misses: 120
ded-> Hits: 4506, Late: 13569, Early: 0, Misses: 0
df2-> Hits: 24690, Late: 2504, Early: 0, Misses: 0
df5-> Hits: 19, Late: 0, Early: 0, Misses: 0
df6-> Hits: 18092, Late: 0, Early: 0, Misses: 0
df7-> Hits: 15574, Late: 1028, Early: 0, Misses: 0
df9-> Hits: 19, Late: 0, Early: 0, Misses: 0
dfb-> Hits: 25474, Late: 10496, Early: 0, Misses: 0
e00-> Hits: 10581, Late: 0, Early: 0, Misses: 0
e05-> Hits: 8520, Late: 2045, Early: 0, Misses: 0
e06-> Hits: 2556, Late: 15518, Early: 0, Misses: 0
e0a-> Hits: 18067, Late: 0, Early: 0, Misses: 0
e0d-> Hits: 15846, Late: 0, Early: 0, Misses: 0
e0e-> Hits: 8286, Late: 0, Early: 0, Misses: 0
e0f-> Hits: 6126, Late: 0, Early: 0, Misses: 0
e12-> Hits: 10655, Late: 1669, Early: 0, Misses: 0
e13-> Hits: 18074, Late: 0, Early: 0, Misses: 0
e16-> Hits: 5655, Late: 12420, Early: 0, Misses: 0
e17-> Hits: 18074, Late: 0, Early: 0, Misses: 0
e18-> Hits: 12540, Late: 2270, Early: 0, Misses: 0
e1b-> Hits: 12832, Late: 3673, Early: 0, Misses: 0
e1f-> Hits: 1126, Late: 0, Early: 0, Misses: 0
e22-> Hits: 18074, Late: 0, Early: 0, Misses: 0
e26-> Hits: 16637, Late: 0, Early: 0, Misses: 0
e27-> Hits: 12842, Late: 2291, Early: 0, Misses: 0
e2a-> Hits: 17555, Late: 0, Early: 0, Misses: 0
e2d-> Hits: 18074, Late: 0, Early: 0, Misses: 0
e2e-> Hits: 3927, Late: 0, Early: 0, Misses: 0
e33-> Hits: 2315, Late: 0, Early: 0, Misses: 0
e35-> Hits: 2698, Late: 0, Early: 0, Misses: 0
e36-> Hits: 37787, Late: 10388, Early: 0, Misses: 140
e3b-> Hits: 5967, Late: 2388, Early: 0, Misses: 0
e3d-> Hits: 3405, Late: 14662, Early: 0, Misses: 0
e3e-> Hits: 30537, Late: 1, Early: 0, Misses: 5610
e40-> Hits: 34136, Late: 57, Early: 0, Misses: 0
e44-> Hits: 2351, Late: 0, Early: 0, Misses: 0
e46-> Hits: 8243, Late: 0, Early: 0, Misses: 0
e47-> Hits: 15655, Late: 0, Early: 0, Misses: 0
e49-> Hits: 12966, Late: 571, Early: 0, Misses: 0
e4b-> Hits: 6932, Late: 11143, Early: 0, Misses: 0
e4f-> Hits: 17840, Late: 0, Early: 0, Misses: 0
e50-> Hits: 11208, Late: 2934, Early: 0, Misses: 0
e54-> Hits: 34276, Late: 0, Early: 0, Misses: 0
e57-> Hits: 14263, Late: 1400, Early: 0, Misses: 0
e5a-> Hits: 1565, Late: 0, Early: 0, Misses: 0
e5c-> Hits: 14569, Late: 2072, Early: 0, Misses: 0
e5d-> Hits: 5543, Late: 0, Early: 0, Misses: 0
e5f-> Hits: 7065, Late: 11010, Early: 0, Misses: 0
e64-> Hits: 8718, Late: 3190, Early: 0, Misses: 0
e66-> Hits: 536, Late: 0, Early: 0, Misses: 0
e6b-> Hits: 34649, Late: 1327, Early: 0, Misses: 0
e6f-> Hits: 28597, Late: 0, Early: 0, Misses: 0
e70-> Hits: 1, Late: 0, Early: 0, Misses: 0
e72-> Hits: 15945, Late: 2125, Early: 0, Misses: 0
e77-> Hits: 6113, Late: 11962, Early: 0, Misses: 0
e78-> Hits: 1, Late: 0, Early: 0, Misses: 0
e79-> Hits: 1, Late: 18074, Early: 0, Misses: 0
e7a-> Hits: 1, Late: 0, Early: 0, Misses: 0
e7c-> Hits: 9472, Late: 3336, Early: 0, Misses: 0
e7e-> Hits: 1, Late: 0, Early: 0, Misses: 0
e80-> Hits: 1, Late: 0, Early: 0, Misses: 0
e82-> Hits: 3, Late: 0, Early: 0, Misses: 0
e83-> Hits: 1404, Late: 1845, Early: 0, Misses: 0
e86-> Hits: 18074, Late: 0, Early: 0, Misses: 0
e8d-> Hits: 28150, Late: 2305, Early: 0, Misses: 33
e8f-> Hits: 32181, Late: 1, Early: 0, Misses: 146
e97-> Hits: 603, Late: 17472, Early: 0, Misses: 0
e99-> Hits: 18074, Late: 0, Early: 0, Misses: 0
e9c-> Hits: 0, Late: 18075, Early: 0, Misses: 0
ea0-> Hits: 18028, Late: 0, Early: 0, Misses: 0
ea1-> Hits: 3, Late: 0, Early: 0, Misses: 0
ea3-> Hits: 33, Late: 18041, Early: 0, Misses: 0
ea8-> Hits: 6921, Late: 4392, Early: 0, Misses: 0
ea9-> Hits: 18074, Late: 0, Early: 0, Misses: 0
eab-> Hits: 17384, Late: 0, Early: 0, Misses: 0
eaf-> Hits: 20, Late: 18055, Early: 0, Misses: 0
eb8-> Hits: 2504, Late: 453, Early: 0, Misses: 0
ebc-> Hits: 18344, Late: 17805, Early: 0, Misses: 0
ebe-> Hits: 18074, Late: 0, Early: 0, Misses: 0
ec2-> Hits: 6381, Late: 2421, Early: 0, Misses: 81
ec7-> Hits: 9808, Late: 0, Early: 0, Misses: 0
ece-> Hits: 18074, Late: 0, Early: 0, Misses: 0
ecf-> Hits: 409, Late: 2255, Early: 0, Misses: 0
ed1-> Hits: 2, Late: 0, Early: 0, Misses: 0
ed6-> Hits: 11827, Late: 0, Early: 0, Misses: 0
eda-> Hits: 18849, Late: 0, Early: 0, Misses: 0
edb-> Hits: 14544, Late: 1270, Early: 0, Misses: 0
ede-> Hits: 18074, Late: 0, Early: 0, Misses: 0
ee0-> Hits: 18075, Late: 0, Early: 0, Misses: 0
eec-> Hits: 7438, Late: 2331, Early: 0, Misses: 0
eee-> Hits: 17563, Late: 0, Early: 0, Misses: 0
ef1-> Hits: 12527, Late: 0, Early: 0, Misses: 0
ef2-> Hits: 13432, Late: 1809, Early: 0, Misses: 0
ef5-> Hits: 18074, Late: 0, Early: 0, Misses: 0
efb-> Hits: 18074, Late: 0, Early: 0, Misses: 0
f01-> Hits: 149, Late: 17926, Early: 0, Misses: 0
f03-> Hits: 17002, Late: 0, Early: 0, Misses: 1072
f08-> Hits: 14728, Late: 0, Early: 0, Misses: 0
f0c-> Hits: 18072, Late: 0, Early: 0, Misses: 2
f0d-> Hits: 12708, Late: 1478, Early: 0, Misses: 0
f12-> Hits: 15037, Late: 2200, Early: 0, Misses: 0
f14-> Hits: 17432, Late: 0, Early: 0, Misses: 0
f15-> Hits: 17829, Late: 0, Early: 0, Misses: 0
f18-> Hits: 18074, Late: 0, Early: 0, Misses: 0
f19-> Hits: 18075, Late: 0, Early: 0, Misses: 0
f1d-> Hits: 16804, Late: 0, Early: 0, Misses: 0
f1e-> Hits: 18074, Late: 0, Early: 0, Misses: 0
f21-> Hits: 13307, Late: 2273, Early: 0, Misses: 0
f27-> Hits: 18075, Late: 0, Early: 0, Misses: 0
f2a-> Hits: 17688, Late: 0, Early: 0, Misses: 0
f2e-> Hits: 18074, Late: 0, Early: 0, Misses: 0
f31-> Hits: 12845, Late: 0, Early: 0, Misses: 0
f33-> Hits: 1826, Late: 0, Early: 0, Misses: 0
f36-> Hits: 13233, Late: 4841, Early: 0, Misses: 0
f37-> Hits: 951, Late: 17106, Early: 0, Misses: 0
f3b-> Hits: 18074, Late: 0, Early: 0, Misses: 0
f3d-> Hits: 18074, Late: 0, Early: 0, Misses: 0
f3e-> Hits: 19232, Late: 0, Early: 0, Misses: 0
f3f-> Hits: 16638, Late: 0, Early: 0, Misses: 0
f42-> Hits: 1, Late: 0, Early: 0, Misses: 0
f43-> Hits: 13070, Late: 308, Early: 0, Misses: 0
f46-> Hits: 18074, Late: 0, Early: 0, Misses: 0
f48-> Hits: 53594, Late: 0, Early: 0, Misses: 0
f4c-> Hits: 6, Late: 0, Early: 0, Misses: 0
f50-> Hits: 13516, Late: 1767, Early: 0, Misses: 0
f52-> Hits: 28617, Late: 2883, Early: 0, Misses: 0
f56-> Hits: 13661, Late: 2112, Early: 0, Misses: 0
f58-> Hits: 34873, Late: 660, Early: 0, Misses: 0
f5f-> Hits: 15567, Late: 0, Early: 0, Misses: 0
f60-> Hits: 2, Late: 0, Early: 0, Misses: 0
f61-> Hits: 18074, Late: 0, Early: 0, Misses: 0
f64-> Hits: 17122, Late: 0, Early: 0, Misses: 0
f65-> Hits: 16264, Late: 1737, Early: 0, Misses: 0
f6a-> Hits: 18074, Late: 0, Early: 0, Misses: 0
f6c-> Hits: 15811, Late: 2264, Early: 0, Misses: 0
f6d-> Hits: 12755, Late: 0, Early: 0, Misses: 0
f70-> Hits: 31452, Late: 2286, Early: 0, Misses: 0
f73-> Hits: 17615, Late: 18075, Early: 0, Misses: 0
f76-> Hits: 17518, Late: 0, Early: 0, Misses: 0
f79-> Hits: 18074, Late: 0, Early: 0, Misses: 0
f7d-> Hits: 28221, Late: 1779, Early: 0, Misses: 0
f7e-> Hits: 11520, Late: 2200, Early: 0, Misses: 0
f80-> Hits: 18074, Late: 0, Early: 0, Misses: 0
f83-> Hits: 48, Late: 18026, Early: 0, Misses: 0
f89-> Hits: 1180, Late: 16894, Early: 0, Misses: 0
f8c-> Hits: 18074, Late: 0, Early: 0, Misses: 0
f8d-> Hits: 18074, Late: 0, Early: 0, Misses: 0
f8f-> Hits: 26, Late: 18049, Early: 0, Misses: 0
f90-> Hits: 18074, Late: 0, Early: 0, Misses: 0
f92-> Hits: 17366, Late: 0, Early: 0, Misses: 0
f93-> Hits: 18074, Late: 0, Early: 0, Misses: 0
f94-> Hits: 4259, Late: 5653, Early: 0, Misses: 0
f95-> Hits: 18074, Late: 0, Early: 0, Misses: 0
f97-> Hits: 17829, Late: 2233, Early: 0, Misses: 0
f99-> Hits: 12445, Late: 1, Early: 0, Misses: 5628
f9a-> Hits: 30900, Late: 5248, Early: 0, Misses: 0
f9c-> Hits: 12149, Late: 947, Early: 0, Misses: 0
f9e-> Hits: 15237, Late: 480, Early: 0, Misses: 0
fa0-> Hits: 200, Late: 4526, Early: 0, Misses: 11321
fa2-> Hits: 18074, Late: 0, Early: 0, Misses: 0
fa4-> Hits: 1680, Late: 159, Early: 0, Misses: 0
fa5-> Hits: 17980, Late: 0, Early: 0, Misses: 0
fa6-> Hits: 196, Late: 12, Early: 0, Misses: 1152
fa7-> Hits: 1909, Late: 16165, Early: 0, Misses: 0
fa8-> Hits: 3709, Late: 0, Early: 0, Misses: 0
faa-> Hits: 18074, Late: 0, Early: 0, Misses: 0
fab-> Hits: 17634, Late: 22, Early: 0, Misses: 418
fac-> Hits: 17464, Late: 0, Early: 0, Misses: 0
fad-> Hits: 8288, Late: 0, Early: 0, Misses: 0
fb0-> Hits: 0, Late: 18059, Early: 0, Misses: 0
fb1-> Hits: 1088, Late: 16986, Early: 0, Misses: 0
fb4-> Hits: 18458, Late: 0, Early: 0, Misses: 0
fb6-> Hits: 134, Late: 0, Early: 0, Misses: 0
fba-> Hits: 18074, Late: 0, Early: 0, Misses: 0
fbb-> Hits: 2370, Late: 15705, Early: 0, Misses: 0
fbe-> Hits: 18332, Late: 17147, Early: 0, Misses: 0
fbf-> Hits: 17451, Late: 0, Early: 0, Misses: 0
fc2-> Hits: 17703, Late: 0, Early: 0, Misses: 0
fc4-> Hits: 1068, Late: 3976, Early: 0, Misses: 0
fc7-> Hits: 17084, Late: 0, Early: 0, Misses: 0
fc8-> Hits: 18074, Late: 0, Early: 0, Misses: 0
fcd-> Hits: 17945, Late: 0, Early: 0, Misses: 0
fcf-> Hits: 12724, Late: 393, Early: 0, Misses: 0
fd0-> Hits: 18074, Late: 0, Early: 0, Misses: 0
fd1-> Hits: 18074, Late: 0, Early: 0, Misses: 0
fd2-> Hits: 441, Late: 17633, Early: 0, Misses: 0
fd3-> Hits: 18073, Late: 2, Early: 0, Misses: 0
fd6-> Hits: 17762, Late: 0, Early: 0, Misses: 312
fd7-> Hits: 12558, Late: 2415, Early: 0, Misses: 0
fd8-> Hits: 13784, Late: 4290, Early: 0, Misses: 0
fda-> Hits: 17971, Late: 0, Early: 0, Misses: 0
fdd-> Hits: 7318, Late: 0, Early: 0, Misses: 0
fde-> Hits: 16911, Late: 0, Early: 0, Misses: 0
fe3-> Hits: 39684, Late: 0, Early: 0, Misses: 0
fe4-> Hits: 4643, Late: 2214, Early: 0, Misses: 2337
fe5-> Hits: 18945, Late: 17203, Early: 0, Misses: 0
fea-> Hits: 17884, Late: 0, Early: 0, Misses: 0
fec-> Hits: 18074, Late: 0, Early: 0, Misses: 0
fee-> Hits: 3603, Late: 2423, Early: 0, Misses: 0
ff0-> Hits: 17899, Late: 0, Early: 0, Misses: 0
ff1-> Hits: 17789, Late: 109, Early: 0, Misses: 176
ff2-> Hits: 9622, Late: 1595, Early: 0, Misses: 0
ff5-> Hits: 9802, Late: 0, Early: 0, Misses: 0
ff6-> Hits: 15873, Late: 0, Early: 0, Misses: 0
ff9-> Hits: 18114, Late: 18034, Early: 0, Misses: 0
ffb-> Hits: 256, Late: 0, Early: 0, Misses: 0
ffd-> Hits: 2524, Late: 2311, Early: 0, Misses: 0
ffe-> Hits: 17776, Late: 0, Early: 0, Misses: 298
fff-> Hits: 18074, Late: 0, Early: 0, Misses: 0
Total misses (from ip) 6316919
Total accesses (misses) 30327569 6316919
Pref: Addr 0 IP 0 Current 0

DRAM Statistics
 CHANNEL 0
 RQ ROW_BUFFER_HIT:      71042  ROW_BUFFER_MISS:      63065
 DBUS_CONGESTED:        115
 WQ ROW_BUFFER_HIT:       8687  ROW_BUFFER_MISS:      20233  FULL:          0

 AVG_CONGESTED_CYCLE: 4
 All warmup complete: 2
Channel 0 Bank busy for read cycles: 0
Channel 0 Bank busy for write cycles: 0
Channel 0
Rank 0
0banks busy for read cycles: 44788046
0banks busy for write cycles: 14237
1banks busy for read cycles: 7384434
1banks busy for write cycles: 2463306
2banks busy for read cycles: 1553456
2banks busy for write cycles: 851768
3banks busy for read cycles: 329042
3banks busy for write cycles: 283936
4banks busy for read cycles: 176197
4banks busy for write cycles: 110962
5banks busy for read cycles: 95518
5banks busy for write cycles: 68229
6banks busy for read cycles: 56139
6banks busy for write cycles: 26793
7banks busy for read cycles: 2140
7banks busy for write cycles: 4451
8banks busy for read cycles: 0
8banks busy for write cycles: 305

CPU 0 Branch Prediction Accuracy: 99.9878% MPKI: 0.00108 Average ROB Occupancy at Mispredict: 27.1111
Branch types
NOT_BRANCH: 49556927 99.1139%
BRANCH_DIRECT_JUMP: 54228 0.108456%
BRANCH_INDIRECT: 9038 0.018076%
BRANCH_CONDITIONAL: 271248 0.542496%
BRANCH_DIRECT_CALL: 54228 0.108456%
BRANCH_INDIRECT_CALL: 0 0%
BRANCH_RETURN: 54228 0.108456%
BRANCH_OTHER: 0 0%

DRAM PAGES: 1048576
Allocated PAGES: 4562
