
*** ChampSim Multicore Out-of-Order Simulator ***

Warmup Instructions: 50000000
Simulation Instructions: 50000000
Number of CPUs: 1
LLC sets: 2048
LLC ways: 16
Off-chip DRAM Size: 4096 MB Channels: 1 Width: 64-bit Data Rate: 6400 MT/s
CPU 0 runs ./tracer/traces/620.omnetpp_s-874B.champsimtrace.xz
.xz
CPU 0 Bimodal branch predictor
BTB has LRU replacement policy
ITLB has LRU replacement policy
DTLB has LRU replacement policy
STLB has LRU replacement policy
L1I has LRU replacement policy
L1D has LRU replacement policy
Bingo PHT WAYS: 16 and PHT_SIZE: 16384
L2C has LRU replacement policy
Initialize Hawkeye state
Heartbeat CPU 0 instructions: 10000001 cycles: 3902898 heartbeat IPC: 2.5622 cumulative IPC: 2.5622 (Simulation time: 0 hr 0 min 56 sec) 
Heartbeat CPU 0 instructions: 20000001 cycles: 7801786 heartbeat IPC: 2.56483 cumulative IPC: 2.56352 (Simulation time: 0 hr 1 min 54 sec) 
Heartbeat CPU 0 instructions: 30000003 cycles: 11695615 heartbeat IPC: 2.56817 cumulative IPC: 2.56506 (Simulation time: 0 hr 2 min 53 sec) 
Heartbeat CPU 0 instructions: 40000001 cycles: 15598488 heartbeat IPC: 2.56221 cumulative IPC: 2.56435 (Simulation time: 0 hr 3 min 52 sec) 
Heartbeat CPU 0 instructions: 50000000 cycles: 19502431 heartbeat IPC: 2.56151 cumulative IPC: 2.56378 (Simulation time: 0 hr 4 min 43 sec) 

Warmup complete CPU 0 instructions: 50000004 cycles: 19502432 (Simulation time: 0 hr 4 min 43 sec) 

Heartbeat CPU 0 instructions: 60000001 cycles: 63326634 heartbeat IPC: 0.228184 cumulative IPC: 0.228184 (Simulation time: 0 hr 5 min 53 sec) 
Heartbeat CPU 0 instructions: 70000001 cycles: 106605517 heartbeat IPC: 0.23106 cumulative IPC: 0.229613 (Simulation time: 0 hr 7 min 6 sec) 
Heartbeat CPU 0 instructions: 80000002 cycles: 150052231 heartbeat IPC: 0.230167 cumulative IPC: 0.229797 (Simulation time: 0 hr 8 min 28 sec) 
Heartbeat CPU 0 instructions: 90000001 cycles: 193029443 heartbeat IPC: 0.232681 cumulative IPC: 0.230512 (Simulation time: 0 hr 10 min 29 sec) 
Heartbeat CPU 0 instructions: 100000000 cycles: 237210478 heartbeat IPC: 0.226341 cumulative IPC: 0.229665 (Simulation time: 0 hr 11 min 49 sec) 
Finished CPU 0 instructions: 50000002 cycles: 217708203 cumulative IPC: 0.229665 (Simulation time: 0 hr 11 min 49 sec) 

ChampSim completed all CPUs

Region of Interest Statistics

CPU 0 cumulative IPC: 0.229665 instructions: 50000002 cycles: 217708203
ITLB TOTAL     ACCESS:    8263666  HIT:    8201560  MISS:      62106  HIT %:    99.2484  MISS %:   0.751555   MPKI: 1.24212
ITLB LOAD TRANSLATION ACCESS:    8263666  HIT:    8201560  MISS:      62106  HIT %:    99.2484  MISS %:   0.751555   MPKI: 1.24212
ITLB PREFETCH  REQUESTED:          0  ISSUED:          0  USEFUL:          0  USELESS:          0
ITLB USEFUL LOAD PREFETCHES:          0 PREFETCH ISSUED TO LOWER LEVEL:          0  ACCURACY: -nan
ITLB TIMELY PREFETCHES:          0 LATE PREFETCHES: 0 DROPPED PREFETCHES: 0
ITLB PREFETCHES SAME FILL-ORIGIN LEVEL: 0 DIFFERENT FILL-ORIGIN LEVEL: 0
ITLB AVERAGE MISS LATENCY: 10.3302 cycles
ITLB RQ	ACCESS:    9302252	FORWARD:          0	MERGED:    1018047	TO_CACHE:    8284205

DTLB TOTAL     ACCESS:   19572262  HIT:   18617691  MISS:     954571  HIT %:    95.1228  MISS %:    4.87716   MPKI: 19.0914
DTLB LOAD TRANSLATION ACCESS:   19572262  HIT:   18617691  MISS:     954571  HIT %:    95.1228  MISS %:    4.87716   MPKI: 19.0914
DTLB PREFETCH  REQUESTED:          0  ISSUED:          0  USEFUL:          0  USELESS:          0
DTLB USEFUL LOAD PREFETCHES:          0 PREFETCH ISSUED TO LOWER LEVEL:          0  ACCURACY: -nan
DTLB TIMELY PREFETCHES:          0 LATE PREFETCHES: 0 DROPPED PREFETCHES: 0
DTLB PREFETCHES SAME FILL-ORIGIN LEVEL: 0 DIFFERENT FILL-ORIGIN LEVEL: 0
DTLB AVERAGE MISS LATENCY: 25.7979 cycles
DTLB RQ	ACCESS:   22025310	FORWARD:          0	MERGED:    2437600	TO_CACHE:   19587710

STLB TOTAL     ACCESS:    1016677  HIT:     802851  MISS:     213826  HIT %:    78.9681  MISS %:    21.0319   MPKI: 4.27652
STLB LOAD TRANSLATION ACCESS:    1016677  HIT:     802851  MISS:     213826  HIT %:    78.9681  MISS %:    21.0319   MPKI: 4.27652
STLB PREFETCH  REQUESTED:          0  ISSUED:          0  USEFUL:          0  USELESS:          0
STLB USEFUL LOAD PREFETCHES:          0 PREFETCH ISSUED TO LOWER LEVEL:          0  ACCURACY: -nan
STLB TIMELY PREFETCHES:          0 LATE PREFETCHES: 0 DROPPED PREFETCHES: 0
STLB PREFETCHES SAME FILL-ORIGIN LEVEL: 0 DIFFERENT FILL-ORIGIN LEVEL: 0
STLB AVERAGE MISS LATENCY: 75.2503 cycles
STLB RQ	ACCESS:    1016677	FORWARD:          0	MERGED:          0	TO_CACHE:    1016677

STLB Hit, L1D data hit: 0
STLB Hit, L2C data hit: 0
STLB Hit, LLC data hit: 0
STLB Hit, LLC data miss: 0
STLB STLB hints to L2: 0
L1D TOTAL     ACCESS:   21785206  HIT:   20877001  MISS:     908205  HIT %:    95.8311  MISS %:    4.16891   MPKI: 18.1641
L1D LOAD      ACCESS:   12766228  HIT:   11979729  MISS:     786499  HIT %:    93.8392  MISS %:    6.16078   MPKI: 15.73
L1D RFO       ACCESS:    9018978  HIT:    8897272  MISS:     121706  HIT %:    98.6506  MISS %:    1.34944   MPKI: 2.43412
L1D PREFETCH  REQUESTED:          0  ISSUED:          0  USEFUL:          0  USELESS:          0
L1D USEFUL LOAD PREFETCHES:          0 PREFETCH ISSUED TO LOWER LEVEL:          0  ACCURACY: -nan
L1D TIMELY PREFETCHES:          0 LATE PREFETCHES: 0 DROPPED PREFETCHES: 0
L1D PREFETCHES SAME FILL-ORIGIN LEVEL: 0 DIFFERENT FILL-ORIGIN LEVEL: 0
L1D AVERAGE MISS LATENCY: 82.2938 cycles
L1D RQ	ACCESS:   16245229	FORWARD:          0	MERGED:    2791473	TO_CACHE:   12821791
L1D WQ	ACCESS:    9275633	FORWARD:     631965	MERGED:      72114	TO_CACHE:    9203519

L1D UNIQUE REGIONS ACCESSED: 0
L1D REGIONS CONFLICTS: 0
L1D Cross Page Prefetch Requests: 0
L1D Same Page Prefetch Requests: 0
L1D ROI Sum of L1D PQ occupancy: 0
L1D PREFETCHES PUSHED FROM L2C: 0
L1I TOTAL     ACCESS:    9295373  HIT:    9276381  MISS:      18992  HIT %:    99.7957  MISS %:   0.204317   MPKI: 0.37984
L1I LOAD      ACCESS:    9295373  HIT:    9276381  MISS:      18992  HIT %:    99.7957  MISS %:   0.204317   MPKI: 0.37984
L1I PREFETCH  REQUESTED:          0  ISSUED:          0  USEFUL:          0  USELESS:          0
L1I USEFUL LOAD PREFETCHES:          0 PREFETCH ISSUED TO LOWER LEVEL:          0  ACCURACY: -nan
L1I TIMELY PREFETCHES:          0 LATE PREFETCHES: 0 DROPPED PREFETCHES: 0
L1I PREFETCHES SAME FILL-ORIGIN LEVEL: 0 DIFFERENT FILL-ORIGIN LEVEL: 0
L1I AVERAGE MISS LATENCY: 33.083 cycles
L1I RQ	ACCESS:   14374342	FORWARD:          0	MERGED:    5072090	TO_CACHE:    9302252

BTB TOTAL     ACCESS:    7957708  HIT:    7483992  MISS:     473716  HIT %:    94.0471  MISS %:    5.95292   MPKI: 9.47432
BTB BRANCH_DIRECT_JUMP	ACCESS:     567490  HIT:     567393  MISS:         97
BTB BRANCH_INDIRECT	ACCESS:     167849  HIT:     146264  MISS:      21585
BTB BRANCH_CONDITIONAL	ACCESS:    4253075  HIT:    4252666  MISS:        409
BTB BRANCH_DIRECT_CALL	ACCESS:     888050  HIT:     887842  MISS:        208
BTB BRANCH_INDIRECT_CALL	ACCESS:     596599  HIT:     594525  MISS:       2074
BTB BRANCH_RETURN	ACCESS:    1484645  HIT:    1035302  MISS:     449343
BTB BRANCH_OTHER ACCESS:           0  HIT:          0  MISS:          0

L2C TOTAL     ACCESS:    2621229  HIT:    1323711  MISS:    1297518  HIT %:    50.4996  MISS %:    49.5004   MPKI: 25.9504
L2C LOAD      ACCESS:     805486  HIT:     437230  MISS:     368256  HIT %:    54.2815  MISS %:    45.7185   MPKI: 7.36512
L2C DATA LOAD MPKI: 7.24876
L2C INSTRUCTION LOAD MPKI: 0.11636
L2C RFO       ACCESS:     121704  HIT:      42309  MISS:      79395  HIT %:    34.7639  MISS %:    65.2361   MPKI: 1.5879
L2C PREFETCH  ACCESS:     940439  HIT:     228437  MISS:     712002  HIT %:    24.2905  MISS %:    75.7095   MPKI: 14.24
AGUS PREFETCH L1 MISS: 0
L2C DATA PREFETCH MPKI: 14.24
L2C INSTRUCTION PREFETCH MPKI: 0
L2C WRITEBACK ACCESS:     451152  HIT:     449719  MISS:       1433  HIT %:    99.6824  MISS %:   0.317631   MPKI: 0.02866
L2C LOAD TRANSLATION ACCESS:     302448  HIT:     166016  MISS:     136432  HIT %:    54.8908  MISS %:    45.1092   MPKI: 2.72864
L2C PREFETCH  REQUESTED:     971112  ISSUED:     971112  USEFUL:     249153  USELESS:     462843
L2C USEFUL LOAD PREFETCHES:     249153 PREFETCH ISSUED TO LOWER LEVEL:     722249  ACCURACY: 34.4968
L2C TIMELY PREFETCHES:     249153 LATE PREFETCHES: 10243 DROPPED PREFETCHES: 0
L2C PREFETCHES SAME FILL-ORIGIN LEVEL: 722249 DIFFERENT FILL-ORIGIN LEVEL: 0
L2C AVERAGE MISS LATENCY: 155.725 cycles
L2C RQ	ACCESS:    1229645	FORWARD:          0	MERGED:          0	TO_CACHE:    1229638
L2C WQ	ACCESS:     451152	FORWARD:          8	MERGED:          0	TO_CACHE:     451152
L2C PQ	ACCESS:     971112	FORWARD:          0	MERGED:          0	TO_CACHE:     971111

L2C Instructions Evicting Data 4959
L2C Translations Evicting Data 121024
L2C Data Evicting Data 1027846
L2C Instructions Evicting Instructions 486
L2C Translations Evicting Instructions 466
L2C Data Evicting Instructions 4879
L2C Instructions Evicting Translations 373
L2C Translations Evicting Translations 14942
L2C Data Evicting Translations 121110
L2C Dense regions hint from L2: 0
PSCL5 TOTAL     ACCESS:     213826  HIT:     213826  MISS:          0  HIT %:        100  MISS %:          0   MPKI: 0
PSCL5 LOAD TRANSLATION ACCESS:     213826  HIT:     213826  MISS:          0  HIT %:        100  MISS %:          0   MPKI: 0
PSCL5 PREFETCH  REQUESTED:          0  ISSUED:          0  USEFUL:          0  USELESS:          0
PSCL5 USEFUL LOAD PREFETCHES:          0 PREFETCH ISSUED TO LOWER LEVEL:          0  ACCURACY: -nan
PSCL5 TIMELY PREFETCHES:          0 LATE PREFETCHES: 0 DROPPED PREFETCHES: 0
PSCL5 PREFETCHES SAME FILL-ORIGIN LEVEL: 0 DIFFERENT FILL-ORIGIN LEVEL: 0

PSCL4 TOTAL     ACCESS:     213826  HIT:     213826  MISS:          0  HIT %:        100  MISS %:          0   MPKI: 0
PSCL4 LOAD TRANSLATION ACCESS:     213826  HIT:     213826  MISS:          0  HIT %:        100  MISS %:          0   MPKI: 0
PSCL4 PREFETCH  REQUESTED:          0  ISSUED:          0  USEFUL:          0  USELESS:          0
PSCL4 USEFUL LOAD PREFETCHES:          0 PREFETCH ISSUED TO LOWER LEVEL:          0  ACCURACY: -nan
PSCL4 TIMELY PREFETCHES:          0 LATE PREFETCHES: 0 DROPPED PREFETCHES: 0
PSCL4 PREFETCHES SAME FILL-ORIGIN LEVEL: 0 DIFFERENT FILL-ORIGIN LEVEL: 0

PSCL3 TOTAL     ACCESS:     213826  HIT:     213826  MISS:          0  HIT %:        100  MISS %:          0   MPKI: 0
PSCL3 LOAD TRANSLATION ACCESS:     213826  HIT:     213826  MISS:          0  HIT %:        100  MISS %:          0   MPKI: 0
PSCL3 PREFETCH  REQUESTED:          0  ISSUED:          0  USEFUL:          0  USELESS:          0
PSCL3 USEFUL LOAD PREFETCHES:          0 PREFETCH ISSUED TO LOWER LEVEL:          0  ACCURACY: -nan
PSCL3 TIMELY PREFETCHES:          0 LATE PREFETCHES: 0 DROPPED PREFETCHES: 0
PSCL3 PREFETCHES SAME FILL-ORIGIN LEVEL: 0 DIFFERENT FILL-ORIGIN LEVEL: 0

PSCL2 TOTAL     ACCESS:     213826  HIT:     125204  MISS:      88622  HIT %:    58.5542  MISS %:    41.4458   MPKI: 1.77244
PSCL2 LOAD TRANSLATION ACCESS:     213826  HIT:     125204  MISS:      88622  HIT %:    58.5542  MISS %:    41.4458   MPKI: 1.77244
PSCL2 PREFETCH  REQUESTED:          0  ISSUED:          0  USEFUL:          0  USELESS:          0
PSCL2 USEFUL LOAD PREFETCHES:          0 PREFETCH ISSUED TO LOWER LEVEL:          0  ACCURACY: -nan
PSCL2 TIMELY PREFETCHES:          0 LATE PREFETCHES: 0 DROPPED PREFETCHES: 0
PSCL2 PREFETCHES SAME FILL-ORIGIN LEVEL: 0 DIFFERENT FILL-ORIGIN LEVEL: 0

LLC TOTAL     ACCESS:    1645378  HIT:     551493  MISS:    1093885  HIT %:    33.5177  MISS %:    66.4823   MPKI: 21.8777
LLC LOAD      ACCESS:     361572  HIT:     120534  MISS:     241038  HIT %:    33.3361  MISS %:    66.6639   MPKI: 4.82076
LLC RFO       ACCESS:      75832  HIT:      32438  MISS:      43394  HIT %:    42.7761  MISS %:    57.2239   MPKI: 0.86788
LLC PREFETCH  ACCESS:     722243  HIT:      98235  MISS:     624008  HIT %:    13.6014  MISS %:    86.3986   MPKI: 12.4802
AGUS PREFETCH L1 MISS: 0
LLC WRITEBACK ACCESS:     349299  HIT:     195609  MISS:     153690  HIT %:    56.0004  MISS %:    43.9996   MPKI: 3.0738
LLC LOAD TRANSLATION ACCESS:     136432  HIT:     104677  MISS:      31755  HIT %:    76.7247  MISS %:    23.2753   MPKI: 0.6351
LLC PREFETCH  REQUESTED:          0  ISSUED:          0  USEFUL:      13726  USELESS:     611529
LLC USEFUL LOAD PREFETCHES:      13726 PREFETCH ISSUED TO LOWER LEVEL:     624012  ACCURACY: 2.19964
LLC TIMELY PREFETCHES:      13726 LATE PREFETCHES: 0 DROPPED PREFETCHES: 0
LLC PREFETCHES SAME FILL-ORIGIN LEVEL: 0 DIFFERENT FILL-ORIGIN LEVEL: 0
LLC AVERAGE MISS LATENCY: 150.088 cycles
LLC RQ	ACCESS:     573840	FORWARD:          0	MERGED:          0	TO_CACHE:     573836
LLC WQ	ACCESS:     349300	FORWARD:          6	MERGED:          0	TO_CACHE:     349300
LLC PQ	ACCESS:     722249	FORWARD:          0	MERGED:          0	TO_CACHE:     722247

LLC Dense regions hint to LLC: 0

RAW hits: 625074
Loads Generated: 16870303
Loads sent to L1D: 16245229
Stores Generated: 9275634
Stores sent to L1D: 9275633
Major fault: 0 Minor fault: 46286
Allocated PAGES: 46286
[Bingo] PHT Access: 363511
[Bingo] PHT Hit PC+Addr: 44059
[Bingo] PHT Hit PC+Offs: 294996
[Bingo] PHT Miss: 24456
[Bingo] Prefetch PC+Addr: 0
[Bingo] Prefetch PC+Offs: 0
[Bingo] Useful PC+Addr: 0
[Bingo] Useful PC+Offs: 0
[Bingo] Useless PC+Addr: 0
[Bingo] Useless PC+Offs: 0
[Bingo] L1 Prefetch per Region: 0
[Bingo] L2 Prefetch per Region: 3.87104
[Bingo] L3 Prefetch per Region: 0
[Bingo] No Prefetch per Region: 28.129
[Bingo] Number of Voters Mean: 11.4581
[Bingo] Number of Voters SD: 12.0092
PHT read accesses: 5378186
PHT write accesses: 125447
AT read accesses: 437862
AT write accesses: 548172
FT read accesses: 384360
FT write accesses: 363511
PS read accesses: 681927
PS write accesses: 339055
PHT tag read accesses: 9101676
PHT tag write accesses: 169506
AT tag read accesses: 39251400
AT tag write accesses: 563309
FT tag read accesses: 41220659
FT tag write accesses: 622166
PS tag read accesses: 25461006
PS tag write accesses: 1020493

DRAM Statistics
 CHANNEL 0
 RQ ROW_BUFFER_HIT:     171560  ROW_BUFFER_MISS:     768620
 DBUS_CONGESTED:         55
 WQ ROW_BUFFER_HIT:      41566  ROW_BUFFER_MISS:     230430  FULL:          0

 AVG_CONGESTED_CYCLE: 4
 All warmup complete: 2
Channel 0 Bank busy for read cycles: 0
Channel 0 Bank busy for write cycles: 0
Channel 0
Rank 0
0banks busy for read cycles: 137995635
0banks busy for write cycles: 104712
1banks busy for read cycles: 24559960
1banks busy for write cycles: 13777064
2banks busy for read cycles: 13249304
2banks busy for write cycles: 5524098
3banks busy for read cycles: 6557507
3banks busy for write cycles: 2812614
4banks busy for read cycles: 2853772
4banks busy for write cycles: 1709136
5banks busy for read cycles: 1915480
5banks busy for write cycles: 1063874
6banks busy for read cycles: 1827744
6banks busy for write cycles: 602778
7banks busy for read cycles: 1191760
7banks busy for write cycles: 274889
8banks busy for read cycles: 1605062
8banks busy for write cycles: 82815

CPU 0 Branch Prediction Accuracy: 95.7672% MPKI: 8.80588 Average ROB Occupancy at Mispredict: 29.012
Branch types
NOT_BRANCH: 39597806 79.1956%
BRANCH_DIRECT_JUMP: 567490 1.13498%
BRANCH_INDIRECT: 167849 0.335698%
BRANCH_CONDITIONAL: 6697234 13.3945%
BRANCH_DIRECT_CALL: 888050 1.7761%
BRANCH_INDIRECT_CALL: 596599 1.1932%
BRANCH_RETURN: 1484645 2.96929%
BRANCH_OTHER: 0 0%

DRAM PAGES: 1048576
Allocated PAGES: 46286
