
*** ChampSim Multicore Out-of-Order Simulator ***

Warmup Instructions: 50000000
Simulation Instructions: 50000000
Number of CPUs: 1
LLC sets: 2048
LLC ways: 16
Off-chip DRAM Size: 4096 MB Channels: 1 Width: 64-bit Data Rate: 6400 MT/s
CPU 0 runs ../tracer/traces/605.mcf_s-1554B.champsimtrace.xz
.xz
CPU 0 Bimodal branch predictor
BTB has LRU replacement policy
ITLB has LRU replacement policy
DTLB has LRU replacement policy
STLB has LRU replacement policy
L1I has LRU replacement policy
L1D has LRU replacement policy
Initialize SRRIP state for L2C
Initialize SRRIP state
Heartbeat CPU 0 instructions: 10000001 cycles: 3506289 heartbeat IPC: 2.85202 cumulative IPC: 2.85202 (Simulation time: 0 hr 1 min 25 sec) 
Heartbeat CPU 0 instructions: 20000000 cycles: 7034928 heartbeat IPC: 2.83395 cumulative IPC: 2.84296 (Simulation time: 0 hr 2 min 49 sec) 
Heartbeat CPU 0 instructions: 30000001 cycles: 10572131 heartbeat IPC: 2.82709 cumulative IPC: 2.83765 (Simulation time: 0 hr 4 min 13 sec) 
Heartbeat CPU 0 instructions: 40000000 cycles: 14097841 heartbeat IPC: 2.83631 cumulative IPC: 2.83731 (Simulation time: 0 hr 5 min 38 sec) 
Heartbeat CPU 0 instructions: 50000001 cycles: 17626088 heartbeat IPC: 2.83427 cumulative IPC: 2.8367 (Simulation time: 0 hr 7 min 2 sec) 

Warmup complete CPU 0 instructions: 50000001 cycles: 17626088 (Simulation time: 0 hr 7 min 2 sec) 

Heartbeat CPU 0 instructions: 60000002 cycles: 53157116 heartbeat IPC: 0.281444 cumulative IPC: 0.281444 (Simulation time: 0 hr 9 min 43 sec) 
Heartbeat CPU 0 instructions: 70000000 cycles: 89314020 heartbeat IPC: 0.276572 cumulative IPC: 0.278987 (Simulation time: 0 hr 12 min 23 sec) 
Heartbeat CPU 0 instructions: 80000002 cycles: 125962418 heartbeat IPC: 0.272863 cumulative IPC: 0.276915 (Simulation time: 0 hr 15 min 3 sec) 
Heartbeat CPU 0 instructions: 90000003 cycles: 161774461 heartbeat IPC: 0.279236 cumulative IPC: 0.277492 (Simulation time: 0 hr 17 min 44 sec) 
Heartbeat CPU 0 instructions: 100000000 cycles: 196474155 heartbeat IPC: 0.288187 cumulative IPC: 0.279567 (Simulation time: 0 hr 20 min 23 sec) 
Finished CPU 0 instructions: 50000003 cycles: 178848068 cumulative IPC: 0.279567 (Simulation time: 0 hr 20 min 23 sec) 

ChampSim completed all CPUs

Region of Interest Statistics

CPU 0 cumulative IPC: 0.279567 instructions: 50000003 cycles: 178848068
ITLB TOTAL     ACCESS:   10224830  HIT:   10224830  MISS:          0  HIT %:        100  MISS %:          0   MPKI: 0
ITLB LOAD TRANSLATION ACCESS:   10224830  HIT:   10224830  MISS:          0  HIT %:        100  MISS %:          0   MPKI: 0
ITLB PREFETCH  REQUESTED:          0  ISSUED:          0  USEFUL:          0  USELESS:          0
ITLB USEFUL LOAD PREFETCHES:          0 PREFETCH ISSUED TO LOWER LEVEL:          0  ACCURACY: -nan
ITLB TIMELY PREFETCHES:          0 LATE PREFETCHES: 0 DROPPED PREFETCHES: 0
ITLB PREFETCHES SAME FILL-ORIGIN LEVEL: 0 DIFFERENT FILL-ORIGIN LEVEL: 0
ITLB AVERAGE MISS LATENCY: -nan cycles
ITLB RQ	ACCESS:   12467056	FORWARD:          0	MERGED:    2242226	TO_CACHE:   10224830

DTLB TOTAL     ACCESS:   15749789  HIT:   15554322  MISS:     195467  HIT %:    98.7589  MISS %:    1.24108   MPKI: 3.90934
DTLB LOAD TRANSLATION ACCESS:   15749789  HIT:   15554322  MISS:     195467  HIT %:    98.7589  MISS %:    1.24108   MPKI: 3.90934
DTLB PREFETCH  REQUESTED:          0  ISSUED:          0  USEFUL:          0  USELESS:          0
DTLB USEFUL LOAD PREFETCHES:          0 PREFETCH ISSUED TO LOWER LEVEL:          0  ACCURACY: -nan
DTLB TIMELY PREFETCHES:          0 LATE PREFETCHES: 0 DROPPED PREFETCHES: 0
DTLB PREFETCHES SAME FILL-ORIGIN LEVEL: 0 DIFFERENT FILL-ORIGIN LEVEL: 0
DTLB AVERAGE MISS LATENCY: 13.1954 cycles
DTLB RQ	ACCESS:   19452032	FORWARD:          0	MERGED:    3696589	TO_CACHE:   15755443

STLB TOTAL     ACCESS:    5033920  HIT:    5029430  MISS:       4490  HIT %:    99.9108  MISS %:  0.0891949   MPKI: 0.0898
STLB LOAD TRANSLATION ACCESS:     195467  HIT:     190980  MISS:       4487  HIT %:    97.7045  MISS %:    2.29553   MPKI: 0.08974
STLB TRANSLATION FROM L1D PREFETCHER ACCESS:    4838453  HIT:    4838450  MISS:          3  HIT %:    99.9999  MISS %: 6.20033e-05   MPKI: 6e-05
STLB PREFETCH  REQUESTED:          0  ISSUED:          0  USEFUL:          3  USELESS:          0
STLB USEFUL LOAD PREFETCHES:          3 PREFETCH ISSUED TO LOWER LEVEL:          0  ACCURACY: inf
STLB TIMELY PREFETCHES:          3 LATE PREFETCHES: 0 DROPPED PREFETCHES: 0
STLB PREFETCHES SAME FILL-ORIGIN LEVEL: 0 DIFFERENT FILL-ORIGIN LEVEL: 0
STLB AVERAGE MISS LATENCY: 182.204 cycles
STLB RQ	ACCESS:   11956086	FORWARD:          0	MERGED:    6922166	TO_CACHE:    5033920

STLB Hit, L1D data hit: 0
STLB Hit, L2C data hit: 0
STLB Hit, LLC data hit: 0
STLB Hit, LLC data miss: 0
STLB STLB hints to L2: 0
L1D TOTAL     ACCESS:   25107695  HIT:   15832074  MISS:    9275621  HIT %:    63.0567  MISS %:    36.9433   MPKI: 185.512
L1D LOAD      ACCESS:   16024946  HIT:   13274035  MISS:    2750911  HIT %:    82.8336  MISS %:    17.1664   MPKI: 55.0182
L1D RFO       ACCESS:    2708474  HIT:    2554564  MISS:     153910  HIT %:    94.3175  MISS %:    5.68254   MPKI: 3.0782
L1D PREFETCH  ACCESS:    6374275  HIT:       3475  MISS:    6370800  HIT %:   0.054516  MISS %:    99.9455   MPKI: 127.416
AGUS PREFETCH L1 MISS: 0
L1D PREFETCH  REQUESTED:   23592210  ISSUED:   23592210  USEFUL:    4725729  USELESS:    1645153
L1D USEFUL LOAD PREFETCHES:    4725729 PREFETCH ISSUED TO LOWER LEVEL:   11655338  ACCURACY: 40.5456
L1D TIMELY PREFETCHES:    4725729 LATE PREFETCHES: 902049 DROPPED PREFETCHES: 0
L1D PREFETCHES SAME FILL-ORIGIN LEVEL: 7273306 DIFFERENT FILL-ORIGIN LEVEL: 4382032
L1D AVERAGE MISS LATENCY: 1.04515e+07 cycles
L1D RQ	ACCESS:   20563885	FORWARD:          0	MERGED:    4189238	TO_CACHE:   16345826
L1D WQ	ACCESS:    3711168	FORWARD:      28821	MERGED:     604962	TO_CACHE:    3106206
L1D PQ	ACCESS:   11831591	FORWARD:          0	MERGED:      70972	TO_CACHE:   11760619

L1D UNIQUE REGIONS ACCESSED: 0
L1D REGIONS CONFLICTS: 0
L1D Cross Page Prefetch Requests: 0
L1D Same Page Prefetch Requests: 22635344
L1D ROI Sum of L1D PQ occupancy: 155992533
L1D PREFETCHES PUSHED FROM L2C: 0
L1I TOTAL     ACCESS:   12467054  HIT:   12467054  MISS:          0  HIT %:        100  MISS %:          0   MPKI: 0
L1I LOAD      ACCESS:   12467054  HIT:   12467054  MISS:          0  HIT %:        100  MISS %:          0   MPKI: 0
L1I PREFETCH  REQUESTED:          0  ISSUED:          0  USEFUL:          0  USELESS:          0
L1I USEFUL LOAD PREFETCHES:          0 PREFETCH ISSUED TO LOWER LEVEL:          0  ACCURACY: -nan
L1I TIMELY PREFETCHES:          0 LATE PREFETCHES: 0 DROPPED PREFETCHES: 0
L1I PREFETCHES SAME FILL-ORIGIN LEVEL: 0 DIFFERENT FILL-ORIGIN LEVEL: 0
L1I AVERAGE MISS LATENCY: -nan cycles
L1I RQ	ACCESS:   16912653	FORWARD:          0	MERGED:    4445597	TO_CACHE:   12467056

BTB TOTAL     ACCESS:    8795734  HIT:    8795702  MISS:         32  HIT %:    99.9996  MISS %: 0.000363813   MPKI: 0.00064
BTB BRANCH_DIRECT_JUMP	ACCESS:    2039127  HIT:    2039121  MISS:          6
BTB BRANCH_INDIRECT	ACCESS:          0  HIT:          0  MISS:          0
BTB BRANCH_CONDITIONAL	ACCESS:    6755823  HIT:    6755801  MISS:         22
BTB BRANCH_DIRECT_CALL	ACCESS:        392  HIT:        390  MISS:          2
BTB BRANCH_INDIRECT_CALL	ACCESS:          0  HIT:          0  MISS:          0
BTB BRANCH_RETURN	ACCESS:        392  HIT:        390  MISS:          2
BTB BRANCH_OTHER ACCESS:          0  HIT:          0  MISS:          0

L2C TOTAL     ACCESS:   12810345  HIT:    3118011  MISS:    9692334  HIT %:    24.3398  MISS %:    75.6602   MPKI: 193.847
L2C LOAD      ACCESS:    1848862  HIT:     257373  MISS:    1591489  HIT %:    13.9206  MISS %:    86.0794   MPKI: 31.8298
L2C DATA LOAD MPKI: 31.8298
L2C INSTRUCTION LOAD MPKI: 0
L2C RFO       ACCESS:     153623  HIT:        287  MISS:     153336  HIT %:   0.186821  MISS %:    99.8132   MPKI: 3.06672
L2C PREFETCH  ACCESS:   10611251  HIT:    2666257  MISS:    7944994  HIT %:    25.1267  MISS %:    74.8733   MPKI: 158.9
AGUS PREFETCH L1 MISS: 0
L2C DATA PREFETCH MPKI: 158.9
L2C INSTRUCTION PREFETCH MPKI: 0
L2C WRITEBACK ACCESS:     192115  HIT:     190762  MISS:       1353  HIT %:    99.2957  MISS %:   0.704266   MPKI: 0.02706
L2C LOAD TRANSLATION ACCESS:       4490  HIT:       3332  MISS:       1158  HIT %:    74.2094  MISS %:    25.7906   MPKI: 0.02316
L2C TRANSLATION FROM L1D PREFETCHER ACCESS:          4  HIT:          0  MISS:          4  HIT %:          0  MISS %:        100   MPKI: 8e-05
L2C PREFETCH  REQUESTED:          0  ISSUED:          0  USEFUL:     256538  USELESS:    7687770
L2C USEFUL LOAD PREFETCHES:     256538 PREFETCH ISSUED TO LOWER LEVEL:    7992636  ACCURACY: 3.20968
L2C TIMELY PREFETCHES:     256538 LATE PREFETCHES: 47636 DROPPED PREFETCHES: 0
L2C PREFETCHES SAME FILL-ORIGIN LEVEL: 4381521 DIFFERENT FILL-ORIGIN LEVEL: 0
L2C AVERAGE MISS LATENCY: 166.43 cycles
L2C RQ	ACCESS:    2006981	FORWARD:          0	MERGED:          0	TO_CACHE:    2006981
L2C WQ	ACCESS:     192115	FORWARD:          1	MERGED:          0	TO_CACHE:     192115
L2C PQ	ACCESS:   11655170	FORWARD:          0	MERGED:        391	TO_CACHE:   11654778

L2C Instructions Evicting Data 0
L2C Translations Evicting Data 1162
L2C Data Evicting Data 9688654
L2C Instructions Evicting Instructions 0
L2C Translations Evicting Instructions 0
L2C Data Evicting Instructions 0
L2C Instructions Evicting Translations 0
L2C Translations Evicting Translations 0
L2C Data Evicting Translations 1165
L2C Dense regions hint from L2: 0
PSCL5 TOTAL     ACCESS:       4490  HIT:       4490  MISS:          0  HIT %:        100  MISS %:          0   MPKI: 0
PSCL5 LOAD TRANSLATION ACCESS:       4487  HIT:       4487  MISS:          0  HIT %:        100  MISS %:          0   MPKI: 0
PSCL5 TRANSLATION FROM L1D PREFETCHER ACCESS:          3  HIT:          3  MISS:          0  HIT %:        100  MISS %:          0   MPKI: 0
PSCL5 PREFETCH  REQUESTED:          0  ISSUED:          0  USEFUL:          0  USELESS:          0
PSCL5 USEFUL LOAD PREFETCHES:          0 PREFETCH ISSUED TO LOWER LEVEL:          0  ACCURACY: -nan
PSCL5 TIMELY PREFETCHES:          0 LATE PREFETCHES: 0 DROPPED PREFETCHES: 0
PSCL5 PREFETCHES SAME FILL-ORIGIN LEVEL: 0 DIFFERENT FILL-ORIGIN LEVEL: 0

PSCL4 TOTAL     ACCESS:       4490  HIT:       4490  MISS:          0  HIT %:        100  MISS %:          0   MPKI: 0
PSCL4 LOAD TRANSLATION ACCESS:       4487  HIT:       4487  MISS:          0  HIT %:        100  MISS %:          0   MPKI: 0
PSCL4 TRANSLATION FROM L1D PREFETCHER ACCESS:          3  HIT:          3  MISS:          0  HIT %:        100  MISS %:          0   MPKI: 0
PSCL4 PREFETCH  REQUESTED:          0  ISSUED:          0  USEFUL:          0  USELESS:          0
PSCL4 USEFUL LOAD PREFETCHES:          0 PREFETCH ISSUED TO LOWER LEVEL:          0  ACCURACY: -nan
PSCL4 TIMELY PREFETCHES:          0 LATE PREFETCHES: 0 DROPPED PREFETCHES: 0
PSCL4 PREFETCHES SAME FILL-ORIGIN LEVEL: 0 DIFFERENT FILL-ORIGIN LEVEL: 0

PSCL3 TOTAL     ACCESS:       4490  HIT:       4490  MISS:          0  HIT %:        100  MISS %:          0   MPKI: 0
PSCL3 LOAD TRANSLATION ACCESS:       4487  HIT:       4487  MISS:          0  HIT %:        100  MISS %:          0   MPKI: 0
PSCL3 TRANSLATION FROM L1D PREFETCHER ACCESS:          3  HIT:          3  MISS:          0  HIT %:        100  MISS %:          0   MPKI: 0
PSCL3 PREFETCH  REQUESTED:          0  ISSUED:          0  USEFUL:          0  USELESS:          0
PSCL3 USEFUL LOAD PREFETCHES:          0 PREFETCH ISSUED TO LOWER LEVEL:          0  ACCURACY: -nan
PSCL3 TIMELY PREFETCHES:          0 LATE PREFETCHES: 0 DROPPED PREFETCHES: 0
PSCL3 PREFETCHES SAME FILL-ORIGIN LEVEL: 0 DIFFERENT FILL-ORIGIN LEVEL: 0

PSCL2 TOTAL     ACCESS:       4490  HIT:       4477  MISS:         13  HIT %:    99.7105  MISS %:   0.289532   MPKI: 0.00026
PSCL2 LOAD TRANSLATION ACCESS:       4488  HIT:       4475  MISS:         13  HIT %:    99.7103  MISS %:   0.289661   MPKI: 0.00026
PSCL2 TRANSLATION FROM L1D PREFETCHER ACCESS:          2  HIT:          2  MISS:          0  HIT %:        100  MISS %:          0   MPKI: 0
PSCL2 PREFETCH  REQUESTED:          0  ISSUED:          0  USEFUL:          0  USELESS:          0
PSCL2 USEFUL LOAD PREFETCHES:          0 PREFETCH ISSUED TO LOWER LEVEL:          0  ACCURACY: -nan
PSCL2 TIMELY PREFETCHES:          0 LATE PREFETCHES: 0 DROPPED PREFETCHES: 0
PSCL2 PREFETCHES SAME FILL-ORIGIN LEVEL: 0 DIFFERENT FILL-ORIGIN LEVEL: 0

LLC TOTAL     ACCESS:    9883689  HIT:     407311  MISS:    9476378  HIT %:    4.12104  MISS %:     95.879   MPKI: 189.528
LLC LOAD      ACCESS:    1543859  HIT:     133248  MISS:    1410611  HIT %:    8.63084  MISS %:    91.3692   MPKI: 28.2122
LLC RFO       ACCESS:     153331  HIT:        836  MISS:     152495  HIT %:   0.545226  MISS %:    99.4548   MPKI: 3.0499
LLC PREFETCH  ACCESS:    7992630  HIT:      83700  MISS:    7908930  HIT %:    1.04721  MISS %:    98.9528   MPKI: 158.179
AGUS PREFETCH L1 MISS: 0
LLC WRITEBACK ACCESS:     192707  HIT:     189411  MISS:       3296  HIT %:    98.2896  MISS %:    1.71037   MPKI: 0.06592
LLC LOAD TRANSLATION ACCESS:       1158  HIT:        116  MISS:       1042  HIT %:    10.0173  MISS %:    89.9827   MPKI: 0.02084
LLC TRANSLATION FROM L1D PREFETCHER ACCESS:          4  HIT:          0  MISS:          4  HIT %:          0  MISS %:        100   MPKI: 8e-05
LLC PREFETCH  REQUESTED:          0  ISSUED:          0  USEFUL:        744  USELESS:    7907523
LLC USEFUL LOAD PREFETCHES:        744 PREFETCH ISSUED TO LOWER LEVEL:    7908936  ACCURACY: 0.00940708
LLC TIMELY PREFETCHES:        744 LATE PREFETCHES: 0 DROPPED PREFETCHES: 0
LLC PREFETCHES SAME FILL-ORIGIN LEVEL: 0 DIFFERENT FILL-ORIGIN LEVEL: 0
LLC AVERAGE MISS LATENCY: 139.94 cycles
LLC RQ	ACCESS:    1698353	FORWARD:          0	MERGED:          0	TO_CACHE:    1698353
LLC WQ	ACCESS:     192707	FORWARD:          0	MERGED:          0	TO_CACHE:     192707
LLC PQ	ACCESS:    7992636	FORWARD:          0	MERGED:          0	TO_CACHE:    7992636

LLC Dense regions hint to LLC: 0

RAW hits: 2011772
Loads Generated: 22575656
Loads sent to L1D: 20563885
Stores Generated: 3711164
Stores sent to L1D: 3711168
Major fault: 0 Minor fault: 9879
Allocated PAGES: 9879
=== CPU 0 L1D Prefetcher Statistics ===
[MLOP] History of tracked zone:
IIIIIIIIIIIIIIIIIIIIIIIIIIIIIIIIIIIIIIIIIIIIIIIIIIIIIIIIIIIIIIII
IIIIIIIIIIIIIIIIIIIIIIIIIIIIIIIIIIIIIIIIIIIIII2IIIIIIIII2II1IIIA
IIIIIIIIIIIIIIIIIIIIIIIIIIIIIIIIIIIIIIIIIIIII22IIIIIIII22I11IIAA
IIIIIIIIIIIIIIIIIIIIIIIIIIIIIIIIIIIIIIIIIIII222IIIIIII222111IAAA
IIIIIIIIIIIIIIIIIIIIIIIIIIIIIIIIIIIIIIIIIII2222IIIIII2221111AAAA
IIIIIIIIIIIIIIIIIIIIIIIIIIIIIIIIIIIIIIIIII22222IIIII2221111AAAAA
IIIIIIIIIIIIIIIIIIIIIIIIIIIIIIIIIIIIIIIII222222IIII2221111AAAAAA
IIIIIIIIIIIIIIIIIIIIIIIIIIIIIIIIIIIIIIIII222222IIII222111AAAAAAA
IIIIIIIIIIIIIIIIIIIIIIIIIIIIIIIIIIIIIIII2222222III2221111AAAAAAA
IIIIIIIIIIIIIIIIIIIIIIIIIIIIIIIIIIIIIIII2222222III222111AAAAAAAA
IIIIIIIIIIIIIIIIIIIIIIIIIIIIIIIIIIIIIIII2222222II2221111AAAAAAAA
IIIIIIIIIIIIIIIIIIIIIIIIIIIIIIIIIIIIIII22222222II2221111AAAAAAAA
IIIIIIIIIIIIIIIIIIIIIIIIIIIIIIIIIIIIII222222222I2221111AAAAAAAAA
IIIIIIIIIIIIIIIIIIIIIIIIIIIIIIIIIIIII22222222222221111AAAAAAAAAA
IIIIIIIIIIIIIIIIIIIIIIIIIIIIIIIIIIII22222222222221111AAAAAAAAAAA
IIIIIIIIIIIIIIIIIIIIIIIIIIIIIIIIIII22222222222221111AAAAAAAAAAAA
IIIIIIIIIIIIIIIIIIIIIIIIIIIIIIIIII22222222222221111AAAAAAAAAAAAA
IIIIIIIIIIIIIIIIIIIIIIIIIIIIIIIII22222222222221111AAAAAAAAAAAAAA
IIIIIIIIIIIIIIIIIIIIIIIIIIIIIIII22222222222221111AAAAAAAAAAAAAAA
IIIIIIIIIIIIIIIIIIIIIIIIIIIIIII22222222222221111AAAAAAAAAAAAAAAA
IIIIIIIIIIIIIIIIIIIIIIIIIIIIII22222222222221111AAAAAAAAAAAAAAAAA
IIIIIIIIIIIIIIIIIIIIIIIIIIIII22222222222221111AAAAAAAAAAAAAAAAAA
IIIIIIIIIIIIIIIIIIIIIIIIIIII22222222222221111AAAAAAAAAAAAAAAAAAA
IIIIIIIIIIIIIIIIIIIIIIIIIII22222222222221111AAAAAAAAAAAAAAAAAAAA
IIIIIIIIIIIIIIIIIIIIIIIIII22222222222221111AAAAAAAAAAAAAAAAAAAAA
IIIIIIIIIIIIIIIIIIIIIIIII22222222222221111AAAAAAAAAAAAAAAAAAAAAA
IIIIIIIIIIIIIIIIIIIIIIII22222222222221111AAAAAAAAAAAAAAAAAAAAAAA
IIIIIIIIIIIIIIIIIIIIIII22222222222221111AAAAAAAAAAAAAAAAAAAAAAAA
IIIIIIIIIIIIIIIIIIIIII22222222222221111AAAAAAAAAAAAAAAAAAAAAAAAA
IIIIIIIIIIIIIIIIIIIII22222222222221111AAAAAAAAAAAAAAAAAAAAAAAAAA
IIIIIIIIIIIIIIIIIIII22222222222221111AAAAAAAAAAAAAAAAAAAAAAAAAAA
IIIIIIIIIIIIIIIIIII22222222222221111AAAAAAAAAAAAAAAAAAAAAAAAAAAA
IIIIIIIIIIIIIIIIII22222222222221111AAAAAAAAAAAAAAAAAAAAAAAAAAAAA
IIIIIIIIIIIIIIIII22222222222221111AAAAAAAAAAAAAAAAAAAAAAAAAAAAAA
IIIIIIIIIIIIIIII22222222222221111AAAAAAAAAAAAAAAAAAAAAAAAAAAAAAA
IIIIIIIIIIIIIII22222222222221111AAAAAAAAAAAAAAAAAAAAAAAAAAAAAAAA
IIIIIIIIIIIIII22222222222221111AAAAAAAAAAAAAAAAAAAAAAAAAAAAAAAAA
IIIIIIIIIIIII22222222222221111AAAAAAAAAAAAAAAAAAAAAAAAAAAAAAAAAA
IIIIIIIIIIII22222222222221111AAAAAAAAAAAAAAAAAAAAAAAAAAAAAAAAAAA
IIIIIIIIIII22222222222221111AAAAAAAAAAAAAAAAAAAAAAAAAAAAAAAAAAAA
IIIIIIIIII22222222222221111AAAAAAAAAAAAAAAAAAAAAAAAAAAAAAAAAAAAA
IIIIIIIII22222222222221111AAAAAAAAAAAAAAAAAAAAAAAAAAAAAAAAAAAAAA
IIIIIIII22222222222221111AAAAAAAAAAAAAAAAAAAAAAAAAAAAAAAAAAAAAAA
IIIIIII22222222222221111AAAAAAAAAAAAAAAAAAAAAAAAAAAAAAAAAAAAAAAA
IIIIII22222222222221111AAAAAAAAAAAAAAAAAAAAAAAAAAAAAAAAAAAAAAAAA
IIIII22222222222221111AAAAAAAAAAAAAAAAAAAAAAAAAAAAAAAAAAAAAAAAAA
IIII22222222222221111AAAAAAAAAAAAAAAAAAAAAAAAAAAAAAAAAAAAAAAAAAA
III22222222222221111AAAAAAAAAAAAAAAAAAAAAAAAAAAAAAAAAAAAAAAAAAAA
II22222222222221111AAAAAAAAAAAAAAAAAAAAAAAAAAAAAAAAAAAAAAAAAAAAA
I22222222222221111AAAAAAAAAAAAAAAAAAAAAAAAAAAAAAAAAAAAAAAAAAAAAA
22222222222221111AAAAAAAAAAAAAAAAAAAAAAAAAAAAAAAAAAAAAAAAAAAAAAA
2222222222221111AAAAAAAAAAAAAAAAAAAAAAAAAAAAAAAAAAAAAAAAAAAAAAAA
222222222221111AAAAAAAAAAAAAAAAAAAAAAAAAAAAAAAAAAAAAAAAAAAAAAAAA
22222222221111AAAAAAAAAAAAAAAAAAAAAAAAAAAAAAAAAAAAAAAAAAAAAAAAAA
2222222221111AAAAAAAAAAAAAAAAAAAAAAAAAAAAAAAAAAAAAAAAAAAAAAAAAAA
222222221111AAAAAAAAAAAAAAAAAAAAAAAAAAAAAAAAAAAAAAAAAAAAAAAAAAAA
22222221111AAAAAAAAAAAAAAAAAAAAAAAAAAAAAAAAAAAAAAAAAAAAAAAAAAAAA
2222221111AAAAAAAAAAAAAAAAAAAAAAAAAAAAAAAAAAAAAAAAAAAAAAAAAAAAAA
222221111AAAAAAAAAAAAAAAAAAAAAAAAAAAAAAAAAAAAAAAAAAAAAAAAAAAAAAA
22221111AAAAAAAAAAAAAAAAAAAAAAAAAAAAAAAAAAAAAAAAAAAAAAAAAAAAAAAA
2221111AAAAAAAAAAAAAAAAAAAAAAAAAAAAAAAAAAAAAAAAAAAAAAAAAAAAAAAAA
221111AAAAAAAAAAAAAAAAAAAAAAAAAAAAAAAAAAAAAAAAAAAAAAAAAAAAAAAAAA
21111AAAAAAAAAAAAAAAAAAAAAAAAAAAAAAAAAAAAAAAAAAAAAAAAAAAAAAAAAAA
1111AAAAAAAAAAAAAAAAAAAAAAAAAAAAAAAAAAAAAAAAAAAAAAAAAAAAAAAAAAAA
111AAAAAAAAAAAAAAAAAAAAAAAAAAAAAAAAAAAAAAAAAAAAAAAAAAAAAAAAAAAAA
11AAAAAAAAAAAAAAAAAAAAAAAAAAAAAAAAAAAAAAAAAAAAAAAAAAAAAAAAAAAAAA
1AAAAAAAAAAAAAAAAAAAAAAAAAAAAAAAAAAAAAAAAAAAAAAAAAAAAAAAAAAAAAAA
AAAAAAAAAAAAAAAAAAAAAAAAAAAAAAAAAAAAAAAAAAAAAAAAAAAAAAAAAAAAAAAA
IIIIIIIIIIIIIIIIIIIIIIIIIIIIIIIIIIIIIIIIIIIIII1IIIIII1IIIIIIIIIA
IIIIIIIIIIIIIIIIIIIIIIIIIIIIIIIIIIII2IIIIII1II1IIIIII1IIIIIIIIIA
IIIIIIIIIIIIIIIIIIIIIIIIIIIII2IIIIII2IIIIII1II1IIIIII1IIIIIIIIIA
IIIIIIIIIIIIIIIIIIIIIIIIIIII22IIIII22IIIII11I11IIIII11IIIIIIIIAA
IIIIIIIIIIIIIIIIIIIIIIIIIII222IIII222IIII111111IIII111IIIIIIIAAA
IIIIIIIIIIIIIIIIIIIIIIIIIII222IIII222III1111111III1111IIIIIIAAAA
IIIIIIIIIIIIIIIIIIIIIIIIIII222III2222III1111111III1111IIIIIIAAAA
IIIIIIIIIIIIIIIIIIIIIIIIIII222III2222III1111111III1111IIIIIAAAAA
IIIIIIIIIIIIIIIIIIIIIIIIIII222III2222II11111111II11111IIIIIAAAAA
IIIIIIIIIIIIIIIIIIIIIIIIIII222III2222II11111111II11111IIIIAAAAAA
IIIIIIIIIIIIIIIIIIIIIIIIIII222III2222II111111111I11111IIIAAAAAAA
IIIIIIIIIIIIIIIIIIIIIIIIIII222III2222II111111111I11111IIAAAAAAAA
IIIIIIIIIIIIIIIIIIIIII2IIII222III2221II111111111I11111IIAAAAAAAA
IIIIIIIIIIIIIIIIIIIIII2IIII222III2221I1111111111I11111IAAAAAAAAA
IIIIIIIIIIIIIIIIIIIII22IIII222III2211I1111111111I11111IAAAAAAAAA
IIIIIIIIIIIIIIIIIIIII22IIII222III221111111111111I11111AAAAAAAAAA
IIIIIIIIIIIIIIIIIIII222IIII222III211111111111111I11111AAAAAAAAAA
IIIIIIIIIIIIIIIIIII2222III2222III111111111111111I1111AAAAAAAAAAA
IIIIIIIIIIIIIIIIII22222II22222II1111111111111111I111AAAAAAAAAAAA
IIIIIIIIIIIIIIIII222222I222222I11111111111111111I11AAAAAAAAAAAAA
IIIIIIIIIIIIIIII22222222222222111111111111111111I1AAAAAAAAAAAAAA
IIIIIIIIIIIIIII222222222222221111111111111111111IAAAAAAAAAAAAAAA
IIIIIIIIIIIIII2222222222222211111111111111111111AAAAAAAAAAAAAAAA
IIIIIIIIIIIII2222222222222211111111111111111111AAAAAAAAAAAAAAAAA
IIIIIIIIIIII2222222222222211111111111111111111AAAAAAAAAAAAAAAAAA
IIIIIIIIIII2222222222222211111111111111111111AAAAAAAAAAAAAAAAAAA
IIIIIIIIII2222222222222211111111111111111111AAAAAAAAAAAAAAAAAAAA
IIIIIIIII2222222222222211111111111111111111AAAAAAAAAAAAAAAAAAAAA
IIIIIIII2222222222222211111111111111111111AAAAAAAAAAAAAAAAAAAAAA
IIIIIII2222222222222211111111111111111111AAAAAAAAAAAAAAAAAAAAAAA
IIIIII2222222222222211111111111111111111AAAAAAAAAAAAAAAAAAAAAAAA
IIIIII222222222222211111111111111111111AAAAAAAAAAAAAAAAAAAAAAAAA
IIIIII22222222222211111111111111111111AAAAAAAAAAAAAAAAAAAAAAAAAA
IIII2I22222222222211111111111111111111AAAAAAAAAAAAAAAAAAAAAAAAAA
III22I2222222222211111111111111111111AAAAAAAAAAAAAAAAAAAAAAAAAAA
II222I222222222211111111111111111111AAAAAAAAAAAAAAAAAAAAAAAAAAAA
I2222I22222222211111111111111111111AAAAAAAAAAAAAAAAAAAAAAAAAAAAA
22222I2222222211111111111111111111AAAAAAAAAAAAAAAAAAAAAAAAAAAAAA
22222I222222211111111111111111111AAAAAAAAAAAAAAAAAAAAAAAAAAAAAAA
22222222222211111111111111111111AAAAAAAAAAAAAAAAAAAAAAAAAAAAAAAA
2222222222211111111111111111111AAAAAAAAAAAAAAAAAAAAAAAAAAAAAAAAA
222222222211111111111111111111AAAAAAAAAAAAAAAAAAAAAAAAAAAAAAAAAA
22222222211111111111111111111AAAAAAAAAAAAAAAAAAAAAAAAAAAAAAAAAAA
2222222211111111111111111111AAAAAAAAAAAAAAAAAAAAAAAAAAAAAAAAAAAA
222222211111111111111111111AAAAAAAAAAAAAAAAAAAAAAAAAAAAAAAAAAAAA
22222211111111111111111111AAAAAAAAAAAAAAAAAAAAAAAAAAAAAAAAAAAAAA
2222211111111111111111111AAAAAAAAAAAAAAAAAAAAAAAAAAAAAAAAAAAAAAA
222211111111111111111111AAAAAAAAAAAAAAAAAAAAAAAAAAAAAAAAAAAAAAAA
22211111111111111111111AAAAAAAAAAAAAAAAAAAAAAAAAAAAAAAAAAAAAAAAA
2211111111111111111111AAAAAAAAAAAAAAAAAAAAAAAAAAAAAAAAAAAAAAAAAA
221111111111111111111AAAAAAAAAAAAAAAAAAAAAAAAAAAAAAAAAAAAAAAAAAA
211111111111111111111AAAAAAAAAAAAAAAAAAAAAAAAAAAAAAAAAAAAAAAAAAA
11111111111111111111AAAAAAAAAAAAAAAAAAAAAAAAAAAAAAAAAAAAAAAAAAAA
1111111111111111111AAAAAAAAAAAAAAAAAAAAAAAAAAAAAAAAAAAAAAAAAAAAA
111111111111111111AAAAAAAAAAAAAAAAAAAAAAAAAAAAAAAAAAAAAAAAAAAAAA
11111111111111111AAAAAAAAAAAAAAAAAAAAAAAAAAAAAAAAAAAAAAAAAAAAAAA
1111111111111111AAAAAAAAAAAAAAAAAAAAAAAAAAAAAAAAAAAAAAAAAAAAAAAA
111111111111111AAAAAAAAAAAAAAAAAAAAAAAAAAAAAAAAAAAAAAAAAAAAAAAAA
11111111111111AAAAAAAAAAAAAAAAAAAAAAAAAAAAAAAAAAAAAAAAAAAAAAAAAA
1111111111111AAAAAAAAAAAAAAAAAAAAAAAAAAAAAAAAAAAAAAAAAAAAAAAAAAA
111111111111AAAAAAAAAAAAAAAAAAAAAAAAAAAAAAAAAAAAAAAAAAAAAAAAAAAA
11111111111AAAAAAAAAAAAAAAAAAAAAAAAAAAAAAAAAAAAAAAAAAAAAAAAAAAAA
1111111111AAAAAAAAAAAAAAAAAAAAAAAAAAAAAAAAAAAAAAAAAAAAAAAAAAAAAA
111111111AAAAAAAAAAAAAAAAAAAAAAAAAAAAAAAAAAAAAAAAAAAAAAAAAAAAAAA
11111111AAAAAAAAAAAAAAAAAAAAAAAAAAAAAAAAAAAAAAAAAAAAAAAAAAAAAAAA
1111111AAAAAAAAAAAAAAAAAAAAAAAAAAAAAAAAAAAAAAAAAAAAAAAAAAAAAAAAA
111111AAAAAAAAAAAAAAAAAAAAAAAAAAAAAAAAAAAAAAAAAAAAAAAAAAAAAAAAAA
11111AAAAAAAAAAAAAAAAAAAAAAAAAAAAAAAAAAAAAAAAAAAAAAAAAAAAAAAAAAA
1111AAAAAAAAAAAAAAAAAAAAAAAAAAAAAAAAAAAAAAAAAAAAAAAAAAAAAAAAAAAA
111AAAAAAAAAAAAAAAAAAAAAAAAAAAAAAAAAAAAAAAAAAAAAAAAAAAAAAAAAAAAA
11AAAAAAAAAAAAAAAAAAAAAAAAAAAAAAAAAAAAAAAAAAAAAAAAAAAAAAAAAAAAAA
1AAAAAAAAAAAAAAAAAAAAAAAAAAAAAAAAAAAAAAAAAAAAAAAAAAAAAAAAAAAAAAA
AAAAAAAAAAAAAAAAAAAAAAAAAAAAAAAAAAAAAAAAAAAAAAAAAAAAAAAAAAAAAAAA
IIIIIIIIIIIIIIIIIIIIIIIIIIIIIIIIIIIIIIIIIIIIIIIIIIIII1IIIIIIIIIA
IIIIIIIIIIIIIIIIIIIIIIIIIIIIIIIII2II1IIIIII1II1IIIIII1IIIIIIIIIA
IIIIIIIIIIIIIIIIIIIIIIIIIIIIIIII22I11IIIII11I11IIIII11IIIIIIIIAA
IIIIIIIIIIIIIIIIIIIIIIIIIIIIIII222111IIII111111IIII111IIIIIIIAAA
IIIIIIIIIIIIIIIIIIIIIIIIIIIIII2221111III1111111III1111IIIIIIAAAA
IIIIIIIIIIIIIIIIIIIIIIIIIIIIII2221111III1111111III1111IIIIIAAAAA
IIIIIIIIIIIIIIIIIIIIIIIIIIIII22211111II11111111II11111IIIIIAAAAA
IIIIIIIIIIIIIIIIIIIIIIIIIIIII22211111II11111111II11111IIIIAAAAAA
IIIIIIIIIIIIIIIIIIIIIIIIIIIII22211111II111111111I11111IIIAAAAAAA
IIIIIIIIIIIIIIIIIIIIIIIIIIIII222111111I111111111I11111IIIAAAAAAA
IIIIIIIIIIIIIIIIIIIIIIIIIIIII222111111I111111111I11111IIAAAAAAAA
IIIIIIIIIIIIIIIIIIIIIIIIII2II122111111I111111111I11111IIAAAAAAAA
IIIIIIIIIIIIIIIIIIIIIIIIII2II1221111111111111111I11111IAAAAAAAAA
IIIIIIIIIIIIIIIIIIIIIIIII22I11221111111111111111I11111IAAAAAAAAA
IIIIIIIIIIIIIIIIIIIIIIII222111221111111111111111I11111AAAAAAAAAA
IIIIIIIIIIIIIIIIIIIIIII2221111221111111111111111I1111AAAAAAAAAAA
IIIIIIIIIIIIIIIIIIIIII22211111221111111111111111I111AAAAAAAAAAAA
IIIIIIIIIIIIIIIIIIIII222111111211111111111111111I11AAAAAAAAAAAAA
IIIIIIIIIIIIIIIIIIII2221111111111111111111111111I1AAAAAAAAAAAAAA
IIIIIIIIIIIIIIIIIII22211111111111111111111111111IAAAAAAAAAAAAAAA
IIIIIIIIIIIIIIIIII222111111111111111111111111111AAAAAAAAAAAAAAAA
IIIIIIIIIIIIIIIII222111111111111111111111111111AAAAAAAAAAAAAAAAA
IIIIIIIIIIIIIIII222111111111111111111111111111AAAAAAAAAAAAAAAAAA
IIIIIIIIIIIIIII222111111111111111111111111111AAAAAAAAAAAAAAAAAAA
IIIIIIIIIIIIII222111111111111111111111111111AAAAAAAAAAAAAAAAAAAA
IIIIIIIIIIIII222111111111111111111111111111AAAAAAAAAAAAAAAAAAAAA
IIIIIIIIIIII222111111111111111111111111111AAAAAAAAAAAAAAAAAAAAAA
IIIIIIIIIII222111111111111111111111111111AAAAAAAAAAAAAAAAAAAAAAA
IIIIIIIIIII22111111111111111111111111111AAAAAAAAAAAAAAAAAAAAAAAA
IIIIIIIIII222111111111111111111111111111AAAAAAAAAAAAAAAAAAAAAAAA
IIIIIIIII222111111111111111111111111111AAAAAAAAAAAAAAAAAAAAAAAAA
IIIIIIIII22111111111111111111111111111AAAAAAAAAAAAAAAAAAAAAAAAAA
IIIIIIII222111111111111111111111111111AAAAAAAAAAAAAAAAAAAAAAAAAA
IIIIIII222111111111111111111111111111AAAAAAAAAAAAAAAAAAAAAAAAAAA
IIIIII222111111111111111111111111111AAAAAAAAAAAAAAAAAAAAAAAAAAAA
IIIII222111111111111111111111111111AAAAAAAAAAAAAAAAAAAAAAAAAAAAA
IIII222111111111111111111111111111AAAAAAAAAAAAAAAAAAAAAAAAAAAAAA
III222111111111111111111111111111AAAAAAAAAAAAAAAAAAAAAAAAAAAAAAA
II222111111111111111111111111111AAAAAAAAAAAAAAAAAAAAAAAAAAAAAAAA
I222111111111111111111111111111AAAAAAAAAAAAAAAAAAAAAAAAAAAAAAAAA
222111111111111111111111111111AAAAAAAAAAAAAAAAAAAAAAAAAAAAAAAAAA
22111111111111111111111111111AAAAAAAAAAAAAAAAAAAAAAAAAAAAAAAAAAA
2111111111111111111111111111AAAAAAAAAAAAAAAAAAAAAAAAAAAAAAAAAAAA
111111111111111111111111111AAAAAAAAAAAAAAAAAAAAAAAAAAAAAAAAAAAAA
11111111111111111111111111AAAAAAAAAAAAAAAAAAAAAAAAAAAAAAAAAAAAAA
1111111111111111111111111AAAAAAAAAAAAAAAAAAAAAAAAAAAAAAAAAAAAAAA
111111111111111111111111AAAAAAAAAAAAAAAAAAAAAAAAAAAAAAAAAAAAAAAA
11111111111111111111111AAAAAAAAAAAAAAAAAAAAAAAAAAAAAAAAAAAAAAAAA
1111111111111111111111AAAAAAAAAAAAAAAAAAAAAAAAAAAAAAAAAAAAAAAAAA
111111111111111111111AAAAAAAAAAAAAAAAAAAAAAAAAAAAAAAAAAAAAAAAAAA
11111111111111111111AAAAAAAAAAAAAAAAAAAAAAAAAAAAAAAAAAAAAAAAAAAA
1111111111111111111AAAAAAAAAAAAAAAAAAAAAAAAAAAAAAAAAAAAAAAAAAAAA
111111111111111111AAAAAAAAAAAAAAAAAAAAAAAAAAAAAAAAAAAAAAAAAAAAAA
11111111111111111AAAAAAAAAAAAAAAAAAAAAAAAAAAAAAAAAAAAAAAAAAAAAAA
1111111111111111AAAAAAAAAAAAAAAAAAAAAAAAAAAAAAAAAAAAAAAAAAAAAAAA
111111111111111AAAAAAAAAAAAAAAAAAAAAAAAAAAAAAAAAAAAAAAAAAAAAAAAA
11111111111111AAAAAAAAAAAAAAAAAAAAAAAAAAAAAAAAAAAAAAAAAAAAAAAAAA
1111111111111AAAAAAAAAAAAAAAAAAAAAAAAAAAAAAAAAAAAAAAAAAAAAAAAAAA
111111111111AAAAAAAAAAAAAAAAAAAAAAAAAAAAAAAAAAAAAAAAAAAAAAAAAAAA
11111111111AAAAAAAAAAAAAAAAAAAAAAAAAAAAAAAAAAAAAAAAAAAAAAAAAAAAA
1111111111AAAAAAAAAAAAAAAAAAAAAAAAAAAAAAAAAAAAAAAAAAAAAAAAAAAAAA
111111111AAAAAAAAAAAAAAAAAAAAAAAAAAAAAAAAAAAAAAAAAAAAAAAAAAAAAAA
11111111AAAAAAAAAAAAAAAAAAAAAAAAAAAAAAAAAAAAAAAAAAAAAAAAAAAAAAAA
1111111AAAAAAAAAAAAAAAAAAAAAAAAAAAAAAAAAAAAAAAAAAAAAAAAAAAAAAAAA
111111AAAAAAAAAAAAAAAAAAAAAAAAAAAAAAAAAAAAAAAAAAAAAAAAAAAAAAAAAA
11111AAAAAAAAAAAAAAAAAAAAAAAAAAAAAAAAAAAAAAAAAAAAAAAAAAAAAAAAAAA
1111AAAAAAAAAAAAAAAAAAAAAAAAAAAAAAAAAAAAAAAAAAAAAAAAAAAAAAAAAAAA
111AAAAAAAAAAAAAAAAAAAAAAAAAAAAAAAAAAAAAAAAAAAAAAAAAAAAAAAAAAAAA
11AAAAAAAAAAAAAAAAAAAAAAAAAAAAAAAAAAAAAAAAAAAAAAAAAAAAAAAAAAAAAA
1AAAAAAAAAAAAAAAAAAAAAAAAAAAAAAAAAAAAAAAAAAAAAAAAAAAAAAAAAAAAAAA
AAAAAAAAAAAAAAAAAAAAAAAAAAAAAAAAAAAAAAAAAAAAAAAAAAAAAAAAAAAAAAAA
IIIIIIIIIIIIIIIIIIIIIIIIIIIIIIIIIIIIIIIIIIIIIIIIIIIIIIIIIIII1IIA
IIIIIIIIIIIIIIIIIIIIIIIIIIIIIIIIIIIIIIIIIIIIIIIIII1II1IIIIII1IIA
IIIIIIIIIIIIIIIIIIIIIIIIIIIIIIIIIII1IIIIII1IIIIII11I11IIIII11IAA
IIIIIIIIIIIIIIIIIIIIIIIIIIIIIIIIIII12IIIII1IIIIII11I11IIIII11IAA
IIIIIIIIIIIIIIIIIIIIIIIIIIIIIIIIIII12IIIII1IIIII111111IIII111AAA
IIIIIIIIIIIIIIIIIIIIIIIIIIIIIIIIII112IIII11IIIII111111IIII111AAA
IIIIIIIIIIIIIIIIIIIIIIIIIIIIIIIII1112III111IIII1111111III111AAAA
IIIIIIIIIIIIIIIIIIIIIIIIIIIIIIIII1112III111III11111111II111AAAAA
IIIIIIIIIIIIIIIIIIIIIIIIIIIIIIIII1112II1111III11111111II111AAAAA
IIIIIIIIIIIIIIIIIIIIIIIIIIIIIIIII1112II1111III11111111II11AAAAAA
IIIIIIIIIIIIIIIIIIIIIIIIIIIIIII1I1112I11111II111111111I111AAAAAA
IIIIIIIIIIIIIIIIIIIIIIIIIIIIIII1I1112I11111II111111111111AAAAAAA
IIIIIIIIIIIIIIIIIIIIIIIIIIIIIII1I1112I111111I11111111111AAAAAAAA
IIIIIIIIIIIIIIIIIIIIIIIIIIIII121I1111I111111I11111111111AAAAAAAA
IIIIIIIIIIIIIIIIIIIIIIIIIIII1121I1111I111111I1111111111AAAAAAAAA
IIIIIIIIIIIIIIIIIIIIIIIIIII11121I1111I1111111111111111AAAAAAAAAA
IIIIIIIIIIIIIIIIIIIIIIIIII111121I1111I111111111111111AAAAAAAAAAA
IIIIIIIIIIIIIIIIIIIIIIIII111112111111I11111111111111AAAAAAAAAAAA
IIIIIIIIIIIIIIIIIIIIIIII1111112111111I1111111111111AAAAAAAAAAAAA
IIIIIIIIIIIIIIIIIIIIIII111111111111111111111111111AAAAAAAAAAAAAA
IIIIIIIIIIIIIIIIIIIIII111111111111111111111111111AAAAAAAAAAAAAAA
IIIIIIIIIIIIIIIIIIIII111111111111111111111111111AAAAAAAAAAAAAAAA
IIIIIIIIIIIIIIIIIIII111111111111111111111111111AAAAAAAAAAAAAAAAA
IIIIIIIIIIIIIIIIIII111111111111111111111111111AAAAAAAAAAAAAAAAAA
IIIIIIIIIIIIIIIIII111111111111111111111111111AAAAAAAAAAAAAAAAAAA
IIIIIIIIIIIIIIIII111111111111111111111111111AAAAAAAAAAAAAAAAAAAA
IIIIIIIIIIIIIIII111111111111111111111111111AAAAAAAAAAAAAAAAAAAAA
IIIIIIIIIIIIIII111111111111111111111111111AAAAAAAAAAAAAAAAAAAAAA
IIIIIIIIIIIIII111111111111111111111111111AAAAAAAAAAAAAAAAAAAAAAA
IIIIIIIIIIIII111111111111111111111111111AAAAAAAAAAAAAAAAAAAAAAAA
IIIIIIIIIIII111111111111111111111111111AAAAAAAAAAAAAAAAAAAAAAAAA
IIIIIIIIIII111111111111111111111111111AAAAAAAAAAAAAAAAAAAAAAAAAA
IIIIIIIIII111111111111111111111111111AAAAAAAAAAAAAAAAAAAAAAAAAAA
IIIIIIIII111111111111111111111111111AAAAAAAAAAAAAAAAAAAAAAAAAAAA
IIIIIIII111111111111111111111111111AAAAAAAAAAAAAAAAAAAAAAAAAAAAA
IIIIIII111111111111111111111111111AAAAAAAAAAAAAAAAAAAAAAAAAAAAAA
IIIIII111111111111111111111111111AAAAAAAAAAAAAAAAAAAAAAAAAAAAAAA
IIIII111111111111111111111111111AAAAAAAAAAAAAAAAAAAAAAAAAAAAAAAA
IIII111111111111111111111111111AAAAAAAAAAAAAAAAAAAAAAAAAAAAAAAAA
III111111111111111111111111111AAAAAAAAAAAAAAAAAAAAAAAAAAAAAAAAAA
II111111111111111111111111111AAAAAAAAAAAAAAAAAAAAAAAAAAAAAAAAAAA
I111111111111111111111111111AAAAAAAAAAAAAAAAAAAAAAAAAAAAAAAAAAAA
111111111111111111111111111AAAAAAAAAAAAAAAAAAAAAAAAAAAAAAAAAAAAA
11111111111111111111111111AAAAAAAAAAAAAAAAAAAAAAAAAAAAAAAAAAAAAA
1111111111111111111111111AAAAAAAAAAAAAAAAAAAAAAAAAAAAAAAAAAAAAAA
111111111111111111111111AAAAAAAAAAAAAAAAAAAAAAAAAAAAAAAAAAAAAAAA
11111111111111111111111AAAAAAAAAAAAAAAAAAAAAAAAAAAAAAAAAAAAAAAAA
1111111111111111111111AAAAAAAAAAAAAAAAAAAAAAAAAAAAAAAAAAAAAAAAAA
111111111111111111111AAAAAAAAAAAAAAAAAAAAAAAAAAAAAAAAAAAAAAAAAAA
11111111111111111111AAAAAAAAAAAAAAAAAAAAAAAAAAAAAAAAAAAAAAAAAAAA
1111111111111111111AAAAAAAAAAAAAAAAAAAAAAAAAAAAAAAAAAAAAAAAAAAAA
111111111111111111AAAAAAAAAAAAAAAAAAAAAAAAAAAAAAAAAAAAAAAAAAAAAA
11111111111111111AAAAAAAAAAAAAAAAAAAAAAAAAAAAAAAAAAAAAAAAAAAAAAA
1111111111111111AAAAAAAAAAAAAAAAAAAAAAAAAAAAAAAAAAAAAAAAAAAAAAAA
111111111111111AAAAAAAAAAAAAAAAAAAAAAAAAAAAAAAAAAAAAAAAAAAAAAAAA
11111111111111AAAAAAAAAAAAAAAAAAAAAAAAAAAAAAAAAAAAAAAAAAAAAAAAAA
1111111111111AAAAAAAAAAAAAAAAAAAAAAAAAAAAAAAAAAAAAAAAAAAAAAAAAAA
111111111111AAAAAAAAAAAAAAAAAAAAAAAAAAAAAAAAAAAAAAAAAAAAAAAAAAAA
11111111111AAAAAAAAAAAAAAAAAAAAAAAAAAAAAAAAAAAAAAAAAAAAAAAAAAAAA
1111111111AAAAAAAAAAAAAAAAAAAAAAAAAAAAAAAAAAAAAAAAAAAAAAAAAAAAAA
111111111AAAAAAAAAAAAAAAAAAAAAAAAAAAAAAAAAAAAAAAAAAAAAAAAAAAAAAA
11111111AAAAAAAAAAAAAAAAAAAAAAAAAAAAAAAAAAAAAAAAAAAAAAAAAAAAAAAA
1111111AAAAAAAAAAAAAAAAAAAAAAAAAAAAAAAAAAAAAAAAAAAAAAAAAAAAAAAAA
111111AAAAAAAAAAAAAAAAAAAAAAAAAAAAAAAAAAAAAAAAAAAAAAAAAAAAAAAAAA
11111AAAAAAAAAAAAAAAAAAAAAAAAAAAAAAAAAAAAAAAAAAAAAAAAAAAAAAAAAAA
1111AAAAAAAAAAAAAAAAAAAAAAAAAAAAAAAAAAAAAAAAAAAAAAAAAAAAAAAAAAAA
111AAAAAAAAAAAAAAAAAAAAAAAAAAAAAAAAAAAAAAAAAAAAAAAAAAAAAAAAAAAAA
11AAAAAAAAAAAAAAAAAAAAAAAAAAAAAAAAAAAAAAAAAAAAAAAAAAAAAAAAAAAAAA
1AAAAAAAAAAAAAAAAAAAAAAAAAAAAAAAAAAAAAAAAAAAAAAAAAAAAAAAAAAAAAAA
AAAAAAAAAAAAAAAAAAAAAAAAAAAAAAAAAAAAAAAAAAAAAAAAAAAAAAAAAAAAAAAA
IIIIIIIIIIIIIIIIIIIIIIIIIIIIIIIIIIIIIIIIIIIIIIIIIIIII1IIIIII1IIA
IIIIIIIIIIIIIIIIIIIIIIIIIIIII1IIIIII1IIIIII1IIIIII1II1IIIIII1IIA
IIIIIIIIIIIIIIIIIIIIIIIIIIIII1IIIIII1IIIII11IIIII11I11IIIII11IAA
IIIIIIIIIIIIIIIIIIIIIIIIIIII11IIIII11IIIII11IIIII11I11IIIII11IAA
IIIIIIIIIIIIIIIIIIIIIIIIIIII11IIIII11IIIII11IIIII11I11IIII111AAA
IIIIIIIIIIIIIIIIIIIIIIIIIIII11IIII111IIII111IIII111111IIII111AAA
IIIIIIIIIIIIIIIIIIIIIIIIIIII11IIII111III1111III1111111III111AAAA
IIIIIIIIIIIIIIIIIIIIIIIIIIII11III1111III1111III1111111III111AAAA
IIIIIIIIIIIIIIIIIIIIIIIIIIII11III1111III1111III1111111II111AAAAA
IIIIIIIIIIIIIIIIIIIIIIIIIIII11III1111III1111II11111111II111AAAAA
IIIIIIIIIIIIIIIIIIIIIIII1III11I1I1111I1I1111I111111111I111AAAAAA
IIIIIIIIIIIIIIIIIIIIIII11III1111I111111I11111111111111111AAAAAAA
IIIIIIIIIIIIIIIIIIIIII111III1111I111111I1111111111111111AAAAAAAA
IIIIIIIIIIIIIIIIIIIII1111III1111I111111I111111111111111AAAAAAAAA
IIIIIIIIIIIIIIIIIIII11111II11111I111111I11111111111111AAAAAAAAAA
IIIIIIIIIIIIIIIIIII111111I111111I111111I1111111111111AAAAAAAAAAA
IIIIIIIIIIIIIIIIII1111111111111111111111111111111111AAAAAAAAAAAA
IIIIIIIIIIIIIIIII1111111111111111111111111111111111AAAAAAAAAAAAA
IIIIIIIIIIIIIIII1111111111111111111111111111111111AAAAAAAAAAAAAA
IIIIIIIIIIIIIII1111111111111111111111111111111111AAAAAAAAAAAAAAA
IIIIIIIIIIIIII1111111111111111111111111111111111AAAAAAAAAAAAAAAA
IIIIIIIIIIIII1111111111111111111111111111111111AAAAAAAAAAAAAAAAA
IIIIIIIIIIII1111111111111111111111111111111111AAAAAAAAAAAAAAAAAA
IIIIIIIIIII1111111111111111111111111111111111AAAAAAAAAAAAAAAAAAA
IIIIIIIIII1111111111111111111111111111111111AAAAAAAAAAAAAAAAAAAA
IIIIIIIII1111111111111111111111111111111111AAAAAAAAAAAAAAAAAAAAA
IIIIIIII1111111111111111111111111111111111AAAAAAAAAAAAAAAAAAAAAA
IIIIIII1111111111111111111111111111111111AAAAAAAAAAAAAAAAAAAAAAA
IIIIII1111111111111111111111111111111111AAAAAAAAAAAAAAAAAAAAAAAA
IIIII1111111111111111111111111111111111AAAAAAAAAAAAAAAAAAAAAAAAA
IIII1111111111111111111111111111111111AAAAAAAAAAAAAAAAAAAAAAAAAA
III1111111111111111111111111111111111AAAAAAAAAAAAAAAAAAAAAAAAAAA
II1111111111111111111111111111111111AAAAAAAAAAAAAAAAAAAAAAAAAAAA
I1111111111111111111111111111111111AAAAAAAAAAAAAAAAAAAAAAAAAAAAA
1111111111111111111111111111111111AAAAAAAAAAAAAAAAAAAAAAAAAAAAAA
111111111111111111111111111111111AAAAAAAAAAAAAAAAAAAAAAAAAAAAAAA
11111111111111111111111111111111AAAAAAAAAAAAAAAAAAAAAAAAAAAAAAAA
1111111111111111111111111111111AAAAAAAAAAAAAAAAAAAAAAAAAAAAAAAAA
111111111111111111111111111111AAAAAAAAAAAAAAAAAAAAAAAAAAAAAAAAAA
11111111111111111111111111111AAAAAAAAAAAAAAAAAAAAAAAAAAAAAAAAAAA
1111111111111111111111111111AAAAAAAAAAAAAAAAAAAAAAAAAAAAAAAAAAAA
111111111111111111111111111AAAAAAAAAAAAAAAAAAAAAAAAAAAAAAAAAAAAA
11111111111111111111111111AAAAAAAAAAAAAAAAAAAAAAAAAAAAAAAAAAAAAA
1111111111111111111111111AAAAAAAAAAAAAAAAAAAAAAAAAAAAAAAAAAAAAAA
111111111111111111111111AAAAAAAAAAAAAAAAAAAAAAAAAAAAAAAAAAAAAAAA
11111111111111111111111AAAAAAAAAAAAAAAAAAAAAAAAAAAAAAAAAAAAAAAAA
1111111111111111111111AAAAAAAAAAAAAAAAAAAAAAAAAAAAAAAAAAAAAAAAAA
111111111111111111111AAAAAAAAAAAAAAAAAAAAAAAAAAAAAAAAAAAAAAAAAAA
11111111111111111111AAAAAAAAAAAAAAAAAAAAAAAAAAAAAAAAAAAAAAAAAAAA
1111111111111111111AAAAAAAAAAAAAAAAAAAAAAAAAAAAAAAAAAAAAAAAAAAAA
111111111111111111AAAAAAAAAAAAAAAAAAAAAAAAAAAAAAAAAAAAAAAAAAAAAA
11111111111111111AAAAAAAAAAAAAAAAAAAAAAAAAAAAAAAAAAAAAAAAAAAAAAA
1111111111111111AAAAAAAAAAAAAAAAAAAAAAAAAAAAAAAAAAAAAAAAAAAAAAAA
111111111111111AAAAAAAAAAAAAAAAAAAAAAAAAAAAAAAAAAAAAAAAAAAAAAAAA
11111111111111AAAAAAAAAAAAAAAAAAAAAAAAAAAAAAAAAAAAAAAAAAAAAAAAAA
1111111111111AAAAAAAAAAAAAAAAAAAAAAAAAAAAAAAAAAAAAAAAAAAAAAAAAAA
111111111111AAAAAAAAAAAAAAAAAAAAAAAAAAAAAAAAAAAAAAAAAAAAAAAAAAAA
11111111111AAAAAAAAAAAAAAAAAAAAAAAAAAAAAAAAAAAAAAAAAAAAAAAAAAAAA
1111111111AAAAAAAAAAAAAAAAAAAAAAAAAAAAAAAAAAAAAAAAAAAAAAAAAAAAAA
111111111AAAAAAAAAAAAAAAAAAAAAAAAAAAAAAAAAAAAAAAAAAAAAAAAAAAAAAA
11111111AAAAAAAAAAAAAAAAAAAAAAAAAAAAAAAAAAAAAAAAAAAAAAAAAAAAAAAA
1111111AAAAAAAAAAAAAAAAAAAAAAAAAAAAAAAAAAAAAAAAAAAAAAAAAAAAAAAAA
111111AAAAAAAAAAAAAAAAAAAAAAAAAAAAAAAAAAAAAAAAAAAAAAAAAAAAAAAAAA
11111AAAAAAAAAAAAAAAAAAAAAAAAAAAAAAAAAAAAAAAAAAAAAAAAAAAAAAAAAAA
1111AAAAAAAAAAAAAAAAAAAAAAAAAAAAAAAAAAAAAAAAAAAAAAAAAAAAAAAAAAAA
111AAAAAAAAAAAAAAAAAAAAAAAAAAAAAAAAAAAAAAAAAAAAAAAAAAAAAAAAAAAAA
11AAAAAAAAAAAAAAAAAAAAAAAAAAAAAAAAAAAAAAAAAAAAAAAAAAAAAAAAAAAAAA
1AAAAAAAAAAAAAAAAAAAAAAAAAAAAAAAAAAAAAAAAAAAAAAAAAAAAAAAAAAAAAAA
AAAAAAAAAAAAAAAAAAAAAAAAAAAAAAAAAAAAAAAAAAAAAAAAAAAAAAAAAAAAAAAA
IIIIIIIIIIIIIIIIIIIIIIIIIIIIIIIIIIIIIIII1II1IIIIII1II1IIIIII1IIA
IIIIIIIIIIIIIIIIIIIIIIIIII1II1IIIIII1III1II1IIIIII1II1IIIIII1IIA
IIIIIIIIIIIIIIIIIIIIIIIIII1II1IIIIII1III1II1IIIIII1I11IIIII11IAA
IIIIIIIIIIIIIIIIIIIIIIIIII1II1IIIII11II11I11IIIII11I11IIIII11IAA
IIIIIIIIIIIIIIIIIIIIIIIIII1II1IIIII11II11I11IIII111111IIII111AAA
IIIIIIIIIIIIIIIIIIIIIIIIII11I1IIII111I111111IIII111111IIII111AAA
IIIIIIIIIIIIIIIIIIIIIIIIII11I1IIII1111111111III1111111III111AAAA
IIIIIIIIIIIIIIIIIIIIIIIIII11I1III11111111111III1111111III111AAAA
IIIIIIIIIIIIIIIIIIIIIII1II11I1III11111111111III1111111III111AAAA
IIIIIIIIIIIIIIIIIIIIII11I111I1II111111111111II11111111II111AAAAA
IIIIIIIIIIIIIIIIIIIIII11I111I1II111111111111II11111111I111AAAAAA
IIIIIIIIIIIIIIIIIIIIII11I111I1II111111111111I111111111I111AAAAAA
IIIIIIIIIIIIIIIIIIIIII11I111I1II111111111111I111111111111AAAAAAA
IIIIIIIIIIIIIIIIIII1II11I111I1II111111111111I11111111111AAAAAAAA
IIIIIIIIIIIIIIIIII11I111I11111II111111111111I1111111111AAAAAAAAA
IIIIIIIIIIIIIIIII1111111I11111I11111111111111111111111AAAAAAAAAA
IIIIIIIIIIIIIIII11111111I1111111111111111111111111111AAAAAAAAAAA
IIIIIIIIIIIIIII111111111I111111111111111111111111111AAAAAAAAAAAA
IIIIIIIIIIIIII1111111111111111111111111111111111111AAAAAAAAAAAAA
IIIIIIIIIIIII1111111111111111111111111111111111111AAAAAAAAAAAAAA
IIIIIIIIIIII1111111111111111111111111111111111111AAAAAAAAAAAAAAA
IIIIIIIIIII1111111111111111111111111111111111111AAAAAAAAAAAAAAAA
IIIIIIIIII1111111111111111111111111111111111111AAAAAAAAAAAAAAAAA
IIIIIIIII1111111111111111111111111111111111111AAAAAAAAAAAAAAAAAA
IIIIIIII1111111111111111111111111111111111111AAAAAAAAAAAAAAAAAAA
IIIIIII1111111111111111111111111111111111111AAAAAAAAAAAAAAAAAAAA
IIIIII1111111111111111111111111111111111111AAAAAAAAAAAAAAAAAAAAA
IIIII1111111111111111111111111111111111111AAAAAAAAAAAAAAAAAAAAAA
IIII1111111111111111111111111111111111111AAAAAAAAAAAAAAAAAAAAAAA
III1111111111111111111111111111111111111AAAAAAAAAAAAAAAAAAAAAAAA
II1111111111111111111111111111111111111AAAAAAAAAAAAAAAAAAAAAAAAA
I1111111111111111111111111111111111111AAAAAAAAAAAAAAAAAAAAAAAAAA
1111111111111111111111111111111111111AAAAAAAAAAAAAAAAAAAAAAAAAAA
111111111111111111111111111111111111AAAAAAAAAAAAAAAAAAAAAAAAAAAA
11111111111111111111111111111111111AAAAAAAAAAAAAAAAAAAAAAAAAAAAA
1111111111111111111111111111111111AAAAAAAAAAAAAAAAAAAAAAAAAAAAAA
111111111111111111111111111111111AAAAAAAAAAAAAAAAAAAAAAAAAAAAAAA
11111111111111111111111111111111AAAAAAAAAAAAAAAAAAAAAAAAAAAAAAAA
1111111111111111111111111111111AAAAAAAAAAAAAAAAAAAAAAAAAAAAAAAAA
111111111111111111111111111111AAAAAAAAAAAAAAAAAAAAAAAAAAAAAAAAAA
11111111111111111111111111111AAAAAAAAAAAAAAAAAAAAAAAAAAAAAAAAAAA
1111111111111111111111111111AAAAAAAAAAAAAAAAAAAAAAAAAAAAAAAAAAAA
111111111111111111111111111AAAAAAAAAAAAAAAAAAAAAAAAAAAAAAAAAAAAA
11111111111111111111111111AAAAAAAAAAAAAAAAAAAAAAAAAAAAAAAAAAAAAA
1111111111111111111111111AAAAAAAAAAAAAAAAAAAAAAAAAAAAAAAAAAAAAAA
111111111111111111111111AAAAAAAAAAAAAAAAAAAAAAAAAAAAAAAAAAAAAAAA
11111111111111111111111AAAAAAAAAAAAAAAAAAAAAAAAAAAAAAAAAAAAAAAAA
1111111111111111111111AAAAAAAAAAAAAAAAAAAAAAAAAAAAAAAAAAAAAAAAAA
111111111111111111111AAAAAAAAAAAAAAAAAAAAAAAAAAAAAAAAAAAAAAAAAAA
11111111111111111111AAAAAAAAAAAAAAAAAAAAAAAAAAAAAAAAAAAAAAAAAAAA
1111111111111111111AAAAAAAAAAAAAAAAAAAAAAAAAAAAAAAAAAAAAAAAAAAAA
111111111111111111AAAAAAAAAAAAAAAAAAAAAAAAAAAAAAAAAAAAAAAAAAAAAA
11111111111111111AAAAAAAAAAAAAAAAAAAAAAAAAAAAAAAAAAAAAAAAAAAAAAA
1111111111111111AAAAAAAAAAAAAAAAAAAAAAAAAAAAAAAAAAAAAAAAAAAAAAAA
111111111111111AAAAAAAAAAAAAAAAAAAAAAAAAAAAAAAAAAAAAAAAAAAAAAAAA
11111111111111AAAAAAAAAAAAAAAAAAAAAAAAAAAAAAAAAAAAAAAAAAAAAAAAAA
1111111111111AAAAAAAAAAAAAAAAAAAAAAAAAAAAAAAAAAAAAAAAAAAAAAAAAAA
111111111111AAAAAAAAAAAAAAAAAAAAAAAAAAAAAAAAAAAAAAAAAAAAAAAAAAAA
11111111111AAAAAAAAAAAAAAAAAAAAAAAAAAAAAAAAAAAAAAAAAAAAAAAAAAAAA
1111111111AAAAAAAAAAAAAAAAAAAAAAAAAAAAAAAAAAAAAAAAAAAAAAAAAAAAAA
111111111AAAAAAAAAAAAAAAAAAAAAAAAAAAAAAAAAAAAAAAAAAAAAAAAAAAAAAA
11111111AAAAAAAAAAAAAAAAAAAAAAAAAAAAAAAAAAAAAAAAAAAAAAAAAAAAAAAA
1111111AAAAAAAAAAAAAAAAAAAAAAAAAAAAAAAAAAAAAAAAAAAAAAAAAAAAAAAAA
111111AAAAAAAAAAAAAAAAAAAAAAAAAAAAAAAAAAAAAAAAAAAAAAAAAAAAAAAAAA
11111AAAAAAAAAAAAAAAAAAAAAAAAAAAAAAAAAAAAAAAAAAAAAAAAAAAAAAAAAAA
1111AAAAAAAAAAAAAAAAAAAAAAAAAAAAAAAAAAAAAAAAAAAAAAAAAAAAAAAAAAAA
111AAAAAAAAAAAAAAAAAAAAAAAAAAAAAAAAAAAAAAAAAAAAAAAAAAAAAAAAAAAAA
11AAAAAAAAAAAAAAAAAAAAAAAAAAAAAAAAAAAAAAAAAAAAAAAAAAAAAAAAAAAAAA
1AAAAAAAAAAAAAAAAAAAAAAAAAAAAAAAAAAAAAAAAAAAAAAAAAAAAAAAAAAAAAAA
AAAAAAAAAAAAAAAAAAAAAAAAAAAAAAAAAAAAAAAAAAAAAAAAAAAAAAAAAAAAAAAA
IIIIIIIIIIIIIIIIIIIIIIIIIIIIIIIIIIIIIIIIIII1IIIIII1II1IIIIII1IIA
IIIIIIIIIIIIIIIIIIIIIIIIIIIII1IIIIII1IIIIII1IIIIII1II1IIIIII1IIA
IIIIIIIIIIIIIIIIIIIIIIIIIIIII1IIIII11IIIII11IIIII11I11IIIII11IAA
IIIIIIIIIIIIIIIIIIIIIIIIIIII11IIIII11IIIII11IIIII11I11IIIII11IAA
IIIIIIIIIIIIIIIIIIIIIIIIIIII11IIII111IIII111IIII111111IIII111AAA
IIIIIIIIIIIIIIIIIIIIIIIIIII111IIII111IIII111IIII111111IIII111AAA
IIIIIIIIIIIIIIIIIIIIIIIIIII111IIII111III1111III1111111III111AAAA
IIIIIIIIIIIIIIIIIIIIIIIIIII111III1111III1111III1111111III111AAAA
IIIIIIIIIIIIIIIIIIIIIIIIIII111III1111III1111II11111111II111AAAAA
IIIIIIIIIIIIIIIIIIIIIIIII1I111II11111II11111II11111111II111AAAAA
IIIIIIIIIIIIIIIIIIIIIIII11I111I111111I111111I111111111I111AAAAAA
IIIIIIIIIIIIIIIIIIIIIIII11I111I111111I111111I111111111111AAAAAAA
IIIIIIIIIIIIIIIIIIIIIIII11I111I11111111111111111111111111AAAAAAA
IIIIIIIIIIIIIIIIIIIIII1I11I111I1111111111111111111111111AAAAAAAA
IIIIIIIIIIIIIIIIIIIII11I11I111I111111111111111111111111AAAAAAAAA
IIIIIIIIIIIIIIIIIIII111I11I111I11111111111111111111111AAAAAAAAAA
IIIIIIIIIIIIIIIIIII1111I111111I1111111111111111111111AAAAAAAAAAA
IIIIIIIIIIIIIIIIII11111I111111I111111111111111111111AAAAAAAAAAAA
IIIIIIIIIIIIIIIII111111I111111I11111111111111111111AAAAAAAAAAAAA
IIIIIIIIIIIIIIII1111111111111111111111111111111111AAAAAAAAAAAAAA
IIIIIIIIIIIIIII1111111111111111111111111111111111AAAAAAAAAAAAAAA
IIIIIIIIIIIIII1111111111111111111111111111111111AAAAAAAAAAAAAAAA
IIIIIIIIIIIII1111111111111111111111111111111111AAAAAAAAAAAAAAAAA
IIIIIIIIIIII1111111111111111111111111111111111AAAAAAAAAAAAAAAAAA
IIIIIIIIIII1111111111111111111111111111111111AAAAAAAAAAAAAAAAAAA
IIIIIIIIII1111111111111111111111111111111111AAAAAAAAAAAAAAAAAAAA
IIIIIIIII1111111111111111111111111111111111AAAAAAAAAAAAAAAAAAAAA
IIIIIIII1111111111111111111111111111111111AAAAAAAAAAAAAAAAAAAAAA
IIIIIII1111111111111111111111111111111111AAAAAAAAAAAAAAAAAAAAAAA
IIIIII1111111111111111111111111111111111AAAAAAAAAAAAAAAAAAAAAAAA
IIIII1111111111111111111111111111111111AAAAAAAAAAAAAAAAAAAAAAAAA
IIII1111111111111111111111111111111111AAAAAAAAAAAAAAAAAAAAAAAAAA
III1111111111111111111111111111111111AAAAAAAAAAAAAAAAAAAAAAAAAAA
II1111111111111111111111111111111111AAAAAAAAAAAAAAAAAAAAAAAAAAAA
I1111111111111111111111111111111111AAAAAAAAAAAAAAAAAAAAAAAAAAAAA
1111111111111111111111111111111111AAAAAAAAAAAAAAAAAAAAAAAAAAAAAA
111111111111111111111111111111111AAAAAAAAAAAAAAAAAAAAAAAAAAAAAAA
11111111111111111111111111111111AAAAAAAAAAAAAAAAAAAAAAAAAAAAAAAA
1111111111111111111111111111111AAAAAAAAAAAAAAAAAAAAAAAAAAAAAAAAA
111111111111111111111111111111AAAAAAAAAAAAAAAAAAAAAAAAAAAAAAAAAA
11111111111111111111111111111AAAAAAAAAAAAAAAAAAAAAAAAAAAAAAAAAAA
1111111111111111111111111111AAAAAAAAAAAAAAAAAAAAAAAAAAAAAAAAAAAA
111111111111111111111111111AAAAAAAAAAAAAAAAAAAAAAAAAAAAAAAAAAAAA
11111111111111111111111111AAAAAAAAAAAAAAAAAAAAAAAAAAAAAAAAAAAAAA
1111111111111111111111111AAAAAAAAAAAAAAAAAAAAAAAAAAAAAAAAAAAAAAA
111111111111111111111111AAAAAAAAAAAAAAAAAAAAAAAAAAAAAAAAAAAAAAAA
11111111111111111111111AAAAAAAAAAAAAAAAAAAAAAAAAAAAAAAAAAAAAAAAA
1111111111111111111111AAAAAAAAAAAAAAAAAAAAAAAAAAAAAAAAAAAAAAAAAA
111111111111111111111AAAAAAAAAAAAAAAAAAAAAAAAAAAAAAAAAAAAAAAAAAA
11111111111111111111AAAAAAAAAAAAAAAAAAAAAAAAAAAAAAAAAAAAAAAAAAAA
1111111111111111111AAAAAAAAAAAAAAAAAAAAAAAAAAAAAAAAAAAAAAAAAAAAA
111111111111111111AAAAAAAAAAAAAAAAAAAAAAAAAAAAAAAAAAAAAAAAAAAAAA
11111111111111111AAAAAAAAAAAAAAAAAAAAAAAAAAAAAAAAAAAAAAAAAAAAAAA
1111111111111111AAAAAAAAAAAAAAAAAAAAAAAAAAAAAAAAAAAAAAAAAAAAAAAA
111111111111111AAAAAAAAAAAAAAAAAAAAAAAAAAAAAAAAAAAAAAAAAAAAAAAAA
11111111111111AAAAAAAAAAAAAAAAAAAAAAAAAAAAAAAAAAAAAAAAAAAAAAAAAA
1111111111111AAAAAAAAAAAAAAAAAAAAAAAAAAAAAAAAAAAAAAAAAAAAAAAAAAA
111111111111AAAAAAAAAAAAAAAAAAAAAAAAAAAAAAAAAAAAAAAAAAAAAAAAAAAA
11111111111AAAAAAAAAAAAAAAAAAAAAAAAAAAAAAAAAAAAAAAAAAAAAAAAAAAAA
1111111111AAAAAAAAAAAAAAAAAAAAAAAAAAAAAAAAAAAAAAAAAAAAAAAAAAAAAA
111111111AAAAAAAAAAAAAAAAAAAAAAAAAAAAAAAAAAAAAAAAAAAAAAAAAAAAAAA
11111111AAAAAAAAAAAAAAAAAAAAAAAAAAAAAAAAAAAAAAAAAAAAAAAAAAAAAAAA
1111111AAAAAAAAAAAAAAAAAAAAAAAAAAAAAAAAAAAAAAAAAAAAAAAAAAAAAAAAA
111111AAAAAAAAAAAAAAAAAAAAAAAAAAAAAAAAAAAAAAAAAAAAAAAAAAAAAAAAAA
11111AAAAAAAAAAAAAAAAAAAAAAAAAAAAAAAAAAAAAAAAAAAAAAAAAAAAAAAAAAA
1111AAAAAAAAAAAAAAAAAAAAAAAAAAAAAAAAAAAAAAAAAAAAAAAAAAAAAAAAAAAA
111AAAAAAAAAAAAAAAAAAAAAAAAAAAAAAAAAAAAAAAAAAAAAAAAAAAAAAAAAAAAA
11AAAAAAAAAAAAAAAAAAAAAAAAAAAAAAAAAAAAAAAAAAAAAAAAAAAAAAAAAAAAAA
1AAAAAAAAAAAAAAAAAAAAAAAAAAAAAAAAAAAAAAAAAAAAAAAAAAAAAAAAAAAAAAA
AAAAAAAAAAAAAAAAAAAAAAAAAAAAAAAAAAAAAAAAAAAAAAAAAAAAAAAAAAAAAAAA
IIIIIIIIIIIIIIIIIIIIIIIIIIIIIIIIIIIIIIIIIIIIIIIIIIIII1IIIIII1IIA
IIIIIIIIIIIIIIIIIIIIIIIIIIIII1II1IIIIII1II1IIIIIII1II1IIIIII1IIA
IIIIIIIIIIIIIIIIIIIIIIIIIIIII1II1IIIII11I11IIIIIII1I11IIIII11IAA
IIIIIIIIIIIIIIIIIIIIIIIIIIIII1I11IIIII11I11IIIIII11I11IIIII11IAA
IIIIIIIIIIIIIIIIIIIIIIIIIIIII1I11IIIII11111IIIIII11111IIII111AAA
IIIIIIIIIIIIIIIIIIIIIIIIIII1I1111IIII111111IIIII111111IIII111AAA
IIIIIIIIIIIIIIIIIIIIIIIIIII1I1111IIII111111IIIII111111III111AAAA
IIIIIIIIIIIIIIIIIIIIIIIIIII1I1111III1111111IIIII111111III111AAAA
IIIIIIIIIIIIIIIIIIIIIIIIIII1I1111III1111111IIIII111111II111AAAAA
IIIIIIIIIIIIIIIIIIIIIIIIIII1I1111II11111111III1I111111II111AAAAA
IIIIIIIIIIIIIIIIIIIIIIIIIII1I1111II11111111III1I111111I111AAAAAA
IIIIIIIIIIIIIIIIIIIIIIII1II1I1111I111111111II11I111111I111AAAAAA
IIIIIIIIIIIIIIIIIIIIIII11I11I11111111111111I1111111111111AAAAAAA
IIIIIIIIIIIIIIIIIIIIIII11I11I111111111111111111111111111AAAAAAAA
IIIIIIIIIIIIIIIIIIIIII111111I111111111111111111111111111AAAAAAAA
IIIIIIIIIIIIIIIIIIIII1111111I11111111111111111111111111AAAAAAAAA
IIIIIIIIIIIIIIIIIIII11111111I1111111111111111111111111AAAAAAAAAA
IIIIIIIIIIIIIIIIIII111111111I111111111111111111111111AAAAAAAAAAA
IIIIIIIIIIIIIIIIII1111111111111111111111111111111111AAAAAAAAAAAA
IIIIIIIIIIIIIIIII1111111111111111111111111111111111AAAAAAAAAAAAA
IIIIIIIIIIIIIIII1111111111111111111111111111111111AAAAAAAAAAAAAA
IIIIIIIIIIIIIII1111111111111111111111111111111111AAAAAAAAAAAAAAA
IIIIIIIIIIIIII1111111111111111111111111111111111AAAAAAAAAAAAAAAA
IIIIIIIIIIIII1111111111111111111111111111111111AAAAAAAAAAAAAAAAA
IIIIIIIIIIII1111111111111111111111111111111111AAAAAAAAAAAAAAAAAA
IIIIIIIIIII1111111111111111111111111111111111AAAAAAAAAAAAAAAAAAA
IIIIIIIIII1111111111111111111111111111111111AAAAAAAAAAAAAAAAAAAA
IIIIIIIII1111111111111111111111111111111111AAAAAAAAAAAAAAAAAAAAA
IIIIIIII1111111111111111111111111111111111AAAAAAAAAAAAAAAAAAAAAA
IIIIIII1111111111111111111111111111111111AAAAAAAAAAAAAAAAAAAAAAA
IIIIII1111111111111111111111111111111111AAAAAAAAAAAAAAAAAAAAAAAA
IIIII1111111111111111111111111111111111AAAAAAAAAAAAAAAAAAAAAAAAA
IIII1111111111111111111111111111111111AAAAAAAAAAAAAAAAAAAAAAAAAA
III1111111111111111111111111111111111AAAAAAAAAAAAAAAAAAAAAAAAAAA
II1111111111111111111111111111111111AAAAAAAAAAAAAAAAAAAAAAAAAAAA
I1111111111111111111111111111111111AAAAAAAAAAAAAAAAAAAAAAAAAAAAA
1111111111111111111111111111111111AAAAAAAAAAAAAAAAAAAAAAAAAAAAAA
111111111111111111111111111111111AAAAAAAAAAAAAAAAAAAAAAAAAAAAAAA
11111111111111111111111111111111AAAAAAAAAAAAAAAAAAAAAAAAAAAAAAAA
1111111111111111111111111111111AAAAAAAAAAAAAAAAAAAAAAAAAAAAAAAAA
111111111111111111111111111111AAAAAAAAAAAAAAAAAAAAAAAAAAAAAAAAAA
11111111111111111111111111111AAAAAAAAAAAAAAAAAAAAAAAAAAAAAAAAAAA
1111111111111111111111111111AAAAAAAAAAAAAAAAAAAAAAAAAAAAAAAAAAAA
111111111111111111111111111AAAAAAAAAAAAAAAAAAAAAAAAAAAAAAAAAAAAA
11111111111111111111111111AAAAAAAAAAAAAAAAAAAAAAAAAAAAAAAAAAAAAA
1111111111111111111111111AAAAAAAAAAAAAAAAAAAAAAAAAAAAAAAAAAAAAAA
111111111111111111111111AAAAAAAAAAAAAAAAAAAAAAAAAAAAAAAAAAAAAAAA
11111111111111111111111AAAAAAAAAAAAAAAAAAAAAAAAAAAAAAAAAAAAAAAAA
1111111111111111111111AAAAAAAAAAAAAAAAAAAAAAAAAAAAAAAAAAAAAAAAAA
111111111111111111111AAAAAAAAAAAAAAAAAAAAAAAAAAAAAAAAAAAAAAAAAAA
11111111111111111111AAAAAAAAAAAAAAAAAAAAAAAAAAAAAAAAAAAAAAAAAAAA
1111111111111111111AAAAAAAAAAAAAAAAAAAAAAAAAAAAAAAAAAAAAAAAAAAAA
111111111111111111AAAAAAAAAAAAAAAAAAAAAAAAAAAAAAAAAAAAAAAAAAAAAA
11111111111111111AAAAAAAAAAAAAAAAAAAAAAAAAAAAAAAAAAAAAAAAAAAAAAA
1111111111111111AAAAAAAAAAAAAAAAAAAAAAAAAAAAAAAAAAAAAAAAAAAAAAAA
111111111111111AAAAAAAAAAAAAAAAAAAAAAAAAAAAAAAAAAAAAAAAAAAAAAAAA
11111111111111AAAAAAAAAAAAAAAAAAAAAAAAAAAAAAAAAAAAAAAAAAAAAAAAAA
1111111111111AAAAAAAAAAAAAAAAAAAAAAAAAAAAAAAAAAAAAAAAAAAAAAAAAAA
111111111111AAAAAAAAAAAAAAAAAAAAAAAAAAAAAAAAAAAAAAAAAAAAAAAAAAAA
11111111111AAAAAAAAAAAAAAAAAAAAAAAAAAAAAAAAAAAAAAAAAAAAAAAAAAAAA
1111111111AAAAAAAAAAAAAAAAAAAAAAAAAAAAAAAAAAAAAAAAAAAAAAAAAAAAAA
111111111AAAAAAAAAAAAAAAAAAAAAAAAAAAAAAAAAAAAAAAAAAAAAAAAAAAAAAA
11111111AAAAAAAAAAAAAAAAAAAAAAAAAAAAAAAAAAAAAAAAAAAAAAAAAAAAAAAA
1111111AAAAAAAAAAAAAAAAAAAAAAAAAAAAAAAAAAAAAAAAAAAAAAAAAAAAAAAAA
111111AAAAAAAAAAAAAAAAAAAAAAAAAAAAAAAAAAAAAAAAAAAAAAAAAAAAAAAAAA
11111AAAAAAAAAAAAAAAAAAAAAAAAAAAAAAAAAAAAAAAAAAAAAAAAAAAAAAAAAAA
1111AAAAAAAAAAAAAAAAAAAAAAAAAAAAAAAAAAAAAAAAAAAAAAAAAAAAAAAAAAAA
111AAAAAAAAAAAAAAAAAAAAAAAAAAAAAAAAAAAAAAAAAAAAAAAAAAAAAAAAAAAAA
11AAAAAAAAAAAAAAAAAAAAAAAAAAAAAAAAAAAAAAAAAAAAAAAAAAAAAAAAAAAAAA
1AAAAAAAAAAAAAAAAAAAAAAAAAAAAAAAAAAAAAAAAAAAAAAAAAAAAAAAAAAAAAAA
AAAAAAAAAAAAAAAAAAAAAAAAAAAAAAAAAAAAAAAAAAAAAAAAAAAAAAAAAAAAAAAA
IIIIIIIIIIIIIIIIIIIIIIIIIIIIIIIIIIII12IIIII1IIIIII1II1IIIIII1IIA
IIIIIIIIIIIIIIIIIIIIIIIIIIIIIIIIIII112IIII11IIIII11I11IIIII11IAA
IIIIIIIIIIIIIIIIIIIIIIIIIIIIIIIIII1112III111IIII111111IIII111AAA
IIIIIIIIIIIIIIIIIIIIIIIIIIIIIIIII11112II1111III1111111III111AAAA
IIIIIIIIIIIIIIIIIIIIIIIIIIIIIIIII11112II1111III1111111II111AAAAA
IIIIIIIIIIIIIIIIIIIIIIIIIIIIIIIII11112I11111II11111111II111AAAAA
IIIIIIIIIIIIIIIIIIIIIIIIIIIIIIIII11112I11111II11111111I111AAAAAA
IIIIIIIIIIIIIIIIIIIIIIIIIIIIIIIII11112I11111I111111111I111AAAAAA
IIIIIIIIIIIIIIIIIIIIIIIIIIIIIIIII11112I11111I111111111111AAAAAAA
IIIIIIIIIIIIIIIIIIIIIIIIIIIIIIIII11112I111111111111111111AAAAAAA
IIIIIIIIIIIIIIIIIIIIIIIIIIIII1III11112I11111111111111111AAAAAAAA
IIIIIIIIIIIIIIIIIIIIIIIIIIIII12II11112I11111111111111111AAAAAAAA
IIIIIIIIIIIIIIIIIIIIIIIIIIII112II11112I1111111111111111AAAAAAAAA
IIIIIIIIIIIIIIIIIIIIIIIIIII1112II11112I111111111111111AAAAAAAAAA
IIIIIIIIIIIIIIIIIIIIIIIIII11112II11112I11111111111111AAAAAAAAAAA
IIIIIIIIIIIIIIIIIIIIIIIII111112I111112I1111111111111AAAAAAAAAAAA
IIIIIIIIIIIIIIIIIIIIIIII111111211111121111111111111AAAAAAAAAAAAA
IIIIIIIIIIIIIIIIIIIIIII111111111111111111111111111AAAAAAAAAAAAAA
IIIIIIIIIIIIIIIIIIIIII111111111111111111111111111AAAAAAAAAAAAAAA
IIIIIIIIIIIIIIIIIIIII111111111111111111111111111AAAAAAAAAAAAAAAA
IIIIIIIIIIIIIIIIIIII111111111111111111111111111AAAAAAAAAAAAAAAAA
IIIIIIIIIIIIIIIIIII111111111111111111111111111AAAAAAAAAAAAAAAAAA
IIIIIIIIIIIIIIIIII111111111111111111111111111AAAAAAAAAAAAAAAAAAA
IIIIIIIIIIIIIIIII111111111111111111111111111AAAAAAAAAAAAAAAAAAAA
IIIIIIIIIIIIIIII111111111111111111111111111AAAAAAAAAAAAAAAAAAAAA
IIIIIIIIIIIIIII111111111111111111111111111AAAAAAAAAAAAAAAAAAAAAA
IIIIIIIIIIIIII111111111111111111111111111AAAAAAAAAAAAAAAAAAAAAAA
IIIIIIIIIIIII111111111111111111111111111AAAAAAAAAAAAAAAAAAAAAAAA
IIIIIIIIIIII111111111111111111111111111AAAAAAAAAAAAAAAAAAAAAAAAA
IIIIIIIIIII111111111111111111111111111AAAAAAAAAAAAAAAAAAAAAAAAAA
IIIIIIIIII111111111111111111111111111AAAAAAAAAAAAAAAAAAAAAAAAAAA
IIIIIIIII111111111111111111111111111AAAAAAAAAAAAAAAAAAAAAAAAAAAA
IIIIIIII111111111111111111111111111AAAAAAAAAAAAAAAAAAAAAAAAAAAAA
IIIIIII111111111111111111111111111AAAAAAAAAAAAAAAAAAAAAAAAAAAAAA
IIIIII111111111111111111111111111AAAAAAAAAAAAAAAAAAAAAAAAAAAAAAA
IIIII111111111111111111111111111AAAAAAAAAAAAAAAAAAAAAAAAAAAAAAAA
IIII111111111111111111111111111AAAAAAAAAAAAAAAAAAAAAAAAAAAAAAAAA
III111111111111111111111111111AAAAAAAAAAAAAAAAAAAAAAAAAAAAAAAAAA
II111111111111111111111111111AAAAAAAAAAAAAAAAAAAAAAAAAAAAAAAAAAA
I111111111111111111111111111AAAAAAAAAAAAAAAAAAAAAAAAAAAAAAAAAAAA
111111111111111111111111111AAAAAAAAAAAAAAAAAAAAAAAAAAAAAAAAAAAAA
11111111111111111111111111AAAAAAAAAAAAAAAAAAAAAAAAAAAAAAAAAAAAAA
1111111111111111111111111AAAAAAAAAAAAAAAAAAAAAAAAAAAAAAAAAAAAAAA
111111111111111111111111AAAAAAAAAAAAAAAAAAAAAAAAAAAAAAAAAAAAAAAA
11111111111111111111111AAAAAAAAAAAAAAAAAAAAAAAAAAAAAAAAAAAAAAAAA
1111111111111111111111AAAAAAAAAAAAAAAAAAAAAAAAAAAAAAAAAAAAAAAAAA
111111111111111111111AAAAAAAAAAAAAAAAAAAAAAAAAAAAAAAAAAAAAAAAAAA
11111111111111111111AAAAAAAAAAAAAAAAAAAAAAAAAAAAAAAAAAAAAAAAAAAA
1111111111111111111AAAAAAAAAAAAAAAAAAAAAAAAAAAAAAAAAAAAAAAAAAAAA
111111111111111111AAAAAAAAAAAAAAAAAAAAAAAAAAAAAAAAAAAAAAAAAAAAAA
11111111111111111AAAAAAAAAAAAAAAAAAAAAAAAAAAAAAAAAAAAAAAAAAAAAAA
1111111111111111AAAAAAAAAAAAAAAAAAAAAAAAAAAAAAAAAAAAAAAAAAAAAAAA
111111111111111AAAAAAAAAAAAAAAAAAAAAAAAAAAAAAAAAAAAAAAAAAAAAAAAA
11111111111111AAAAAAAAAAAAAAAAAAAAAAAAAAAAAAAAAAAAAAAAAAAAAAAAAA
1111111111111AAAAAAAAAAAAAAAAAAAAAAAAAAAAAAAAAAAAAAAAAAAAAAAAAAA
111111111111AAAAAAAAAAAAAAAAAAAAAAAAAAAAAAAAAAAAAAAAAAAAAAAAAAAA
11111111111AAAAAAAAAAAAAAAAAAAAAAAAAAAAAAAAAAAAAAAAAAAAAAAAAAAAA
1111111111AAAAAAAAAAAAAAAAAAAAAAAAAAAAAAAAAAAAAAAAAAAAAAAAAAAAAA
111111111AAAAAAAAAAAAAAAAAAAAAAAAAAAAAAAAAAAAAAAAAAAAAAAAAAAAAAA
11111111AAAAAAAAAAAAAAAAAAAAAAAAAAAAAAAAAAAAAAAAAAAAAAAAAAAAAAAA
1111111AAAAAAAAAAAAAAAAAAAAAAAAAAAAAAAAAAAAAAAAAAAAAAAAAAAAAAAAA
111111AAAAAAAAAAAAAAAAAAAAAAAAAAAAAAAAAAAAAAAAAAAAAAAAAAAAAAAAAA
11111AAAAAAAAAAAAAAAAAAAAAAAAAAAAAAAAAAAAAAAAAAAAAAAAAAAAAAAAAAA
1111AAAAAAAAAAAAAAAAAAAAAAAAAAAAAAAAAAAAAAAAAAAAAAAAAAAAAAAAAAAA
111AAAAAAAAAAAAAAAAAAAAAAAAAAAAAAAAAAAAAAAAAAAAAAAAAAAAAAAAAAAAA
11AAAAAAAAAAAAAAAAAAAAAAAAAAAAAAAAAAAAAAAAAAAAAAAAAAAAAAAAAAAAAA
1AAAAAAAAAAAAAAAAAAAAAAAAAAAAAAAAAAAAAAAAAAAAAAAAAAAAAAAAAAAAAAA
AAAAAAAAAAAAAAAAAAAAAAAAAAAAAAAAAAAAAAAAAAAAAAAAAAAAAAAAAAAAAAAA
IIIIIIIIIIIIIIIIIIIIIIIIIIIIIIIIIIIIIIIIIIIIIIIIIIIIIIIIIIII1IIA
IIIIIIIIIIIIIIIIIIIIIIIIIIIIIIIIIIII12IIIII1IIIIII1II1IIIIII1IIA
IIIIIIIIIIIIIIIIIIIIIIIIIIIIIIIIIIII12IIIII1IIIIII1I11IIIII11IAA
IIIIIIIIIIIIIIIIIIIIIIIIIIIIIIIIIII112IIII11IIIII11I11IIIII11IAA
IIIIIIIIIIIIIIIIIIIIIIIIIIIIIIIIIII112IIII11IIII111111IIII111AAA
IIIIIIIIIIIIIIIIIIIIIIIIIIIIIIIIII1112III111IIII111111IIII111AAA
IIIIIIIIIIIIIIIIIIIIIIIIIIIIIIIII11112II1111III1111111III111AAAA
IIIIIIIIIIIIIIIIIIIIIIIIIIIIIIIII11112II1111III1111111II111AAAAA
IIIIIIIIIIIIIIIIIIIIIIIIIIIIIIIII11112II1111II11111111II111AAAAA
IIIIIIIIIIIIIIIIIIIIIIIIIIIIIIIII11112II1111II11111111I111AAAAAA
IIIIIIIIIIIIIIIIIIIIIIIIIIIIIIIII11112II1111I111111111I111AAAAAA
IIIIIIIIIIIIIIIIIIIIIIIIIIIIIII12111121I1111I111111111I111AAAAAA
IIIIIIIIIIIIIIIIIIIIIIIIIIIIII112111111I11111111111111111AAAAAAA
IIIIIIIIIIIIIIIIIIIIIIIIIIIII1112111111I1111111111111111AAAAAAAA
IIIIIIIIIIIIIIIIIIIIIIIIIIII11112111111I111111111111111AAAAAAAAA
IIIIIIIIIIIIIIIIIIIIIIIIIII111112111111I11111111111111AAAAAAAAAA
IIIIIIIIIIIIIIIIIIIIIIIIII1111112111111I1111111111111AAAAAAAAAAA
IIIIIIIIIIIIIIIIIIIIIIIII111111111111111111111111111AAAAAAAAAAAA
IIIIIIIIIIIIIIIIIIIIIIII111111111111111111111111111AAAAAAAAAAAAA
IIIIIIIIIIIIIIIIIIIIIII111111111111111111111111111AAAAAAAAAAAAAA
IIIIIIIIIIIIIIIIIIIIII111111111111111111111111111AAAAAAAAAAAAAAA
IIIIIIIIIIIIIIIIIIIII111111111111111111111111111AAAAAAAAAAAAAAAA
IIIIIIIIIIIIIIIIIIII111111111111111111111111111AAAAAAAAAAAAAAAAA
IIIIIIIIIIIIIIIIIII111111111111111111111111111AAAAAAAAAAAAAAAAAA
IIIIIIIIIIIIIIIIII111111111111111111111111111AAAAAAAAAAAAAAAAAAA
IIIIIIIIIIIIIIIII111111111111111111111111111AAAAAAAAAAAAAAAAAAAA
IIIIIIIIIIIIIIII111111111111111111111111111AAAAAAAAAAAAAAAAAAAAA
IIIIIIIIIIIIIII111111111111111111111111111AAAAAAAAAAAAAAAAAAAAAA
IIIIIIIIIIIIII111111111111111111111111111AAAAAAAAAAAAAAAAAAAAAAA
IIIIIIIIIIIII111111111111111111111111111AAAAAAAAAAAAAAAAAAAAAAAA
IIIIIIIIIIII111111111111111111111111111AAAAAAAAAAAAAAAAAAAAAAAAA
IIIIIIIIIII111111111111111111111111111AAAAAAAAAAAAAAAAAAAAAAAAAA
IIIIIIIIII111111111111111111111111111AAAAAAAAAAAAAAAAAAAAAAAAAAA
IIIIIIIII111111111111111111111111111AAAAAAAAAAAAAAAAAAAAAAAAAAAA
IIIIIIII111111111111111111111111111AAAAAAAAAAAAAAAAAAAAAAAAAAAAA
IIIIIII111111111111111111111111111AAAAAAAAAAAAAAAAAAAAAAAAAAAAAA
IIIIII111111111111111111111111111AAAAAAAAAAAAAAAAAAAAAAAAAAAAAAA
IIIII111111111111111111111111111AAAAAAAAAAAAAAAAAAAAAAAAAAAAAAAA
IIII111111111111111111111111111AAAAAAAAAAAAAAAAAAAAAAAAAAAAAAAAA
III111111111111111111111111111AAAAAAAAAAAAAAAAAAAAAAAAAAAAAAAAAA
II111111111111111111111111111AAAAAAAAAAAAAAAAAAAAAAAAAAAAAAAAAAA
I111111111111111111111111111AAAAAAAAAAAAAAAAAAAAAAAAAAAAAAAAAAAA
111111111111111111111111111AAAAAAAAAAAAAAAAAAAAAAAAAAAAAAAAAAAAA
11111111111111111111111111AAAAAAAAAAAAAAAAAAAAAAAAAAAAAAAAAAAAAA
1111111111111111111111111AAAAAAAAAAAAAAAAAAAAAAAAAAAAAAAAAAAAAAA
111111111111111111111111AAAAAAAAAAAAAAAAAAAAAAAAAAAAAAAAAAAAAAAA
11111111111111111111111AAAAAAAAAAAAAAAAAAAAAAAAAAAAAAAAAAAAAAAAA
1111111111111111111111AAAAAAAAAAAAAAAAAAAAAAAAAAAAAAAAAAAAAAAAAA
111111111111111111111AAAAAAAAAAAAAAAAAAAAAAAAAAAAAAAAAAAAAAAAAAA
11111111111111111111AAAAAAAAAAAAAAAAAAAAAAAAAAAAAAAAAAAAAAAAAAAA
1111111111111111111AAAAAAAAAAAAAAAAAAAAAAAAAAAAAAAAAAAAAAAAAAAAA
111111111111111111AAAAAAAAAAAAAAAAAAAAAAAAAAAAAAAAAAAAAAAAAAAAAA
11111111111111111AAAAAAAAAAAAAAAAAAAAAAAAAAAAAAAAAAAAAAAAAAAAAAA
1111111111111111AAAAAAAAAAAAAAAAAAAAAAAAAAAAAAAAAAAAAAAAAAAAAAAA
111111111111111AAAAAAAAAAAAAAAAAAAAAAAAAAAAAAAAAAAAAAAAAAAAAAAAA
11111111111111AAAAAAAAAAAAAAAAAAAAAAAAAAAAAAAAAAAAAAAAAAAAAAAAAA
1111111111111AAAAAAAAAAAAAAAAAAAAAAAAAAAAAAAAAAAAAAAAAAAAAAAAAAA
111111111111AAAAAAAAAAAAAAAAAAAAAAAAAAAAAAAAAAAAAAAAAAAAAAAAAAAA
11111111111AAAAAAAAAAAAAAAAAAAAAAAAAAAAAAAAAAAAAAAAAAAAAAAAAAAAA
1111111111AAAAAAAAAAAAAAAAAAAAAAAAAAAAAAAAAAAAAAAAAAAAAAAAAAAAAA
111111111AAAAAAAAAAAAAAAAAAAAAAAAAAAAAAAAAAAAAAAAAAAAAAAAAAAAAAA
11111111AAAAAAAAAAAAAAAAAAAAAAAAAAAAAAAAAAAAAAAAAAAAAAAAAAAAAAAA
1111111AAAAAAAAAAAAAAAAAAAAAAAAAAAAAAAAAAAAAAAAAAAAAAAAAAAAAAAAA
111111AAAAAAAAAAAAAAAAAAAAAAAAAAAAAAAAAAAAAAAAAAAAAAAAAAAAAAAAAA
11111AAAAAAAAAAAAAAAAAAAAAAAAAAAAAAAAAAAAAAAAAAAAAAAAAAAAAAAAAAA
1111AAAAAAAAAAAAAAAAAAAAAAAAAAAAAAAAAAAAAAAAAAAAAAAAAAAAAAAAAAAA
111AAAAAAAAAAAAAAAAAAAAAAAAAAAAAAAAAAAAAAAAAAAAAAAAAAAAAAAAAAAAA
11AAAAAAAAAAAAAAAAAAAAAAAAAAAAAAAAAAAAAAAAAAAAAAAAAAAAAAAAAAAAAA
1AAAAAAAAAAAAAAAAAAAAAAAAAAAAAAAAAAAAAAAAAAAAAAAAAAAAAAAAAAAAAAA
AAAAAAAAAAAAAAAAAAAAAAAAAAAAAAAAAAAAAAAAAAAAAAAAAAAAAAAAAAAAAAAA
IIIIIIIIIIIIIIIIIIIIIIIIIIIIIIIIIIIIIIIIIIIIIIIIIIIII1IIIIIIIIIA
IIIIIIIIIIIIIIIIIIIIIIIIIIIIIIIIIIII2IIIIII1II1IIIIII1IIIIIIIIIA
IIIIIIIIIIIIIIIIIIIIIIIIIIIIIIIIIII22IIIII11I11IIIII11IIIIIIIIAA
IIIIIIIIIIIIIIIIIIIIIIIIIIIIIIIIII222IIII111111IIII111IIIIIIIAAA
IIIIIIIIIIIIIIIIIIIIIIIIIIIIIIIIII222III1111111III1111IIIIIIAAAA
IIIIIIIIIIIIIIIIIIIIIIIIIIIIIIIII2222III1111111III1111IIIIIIAAAA
IIIIIIIIIIIIIIIIIIIIIIIIIIIIIIII22222II11111111II11111IIIIIAAAAA
IIIIIIIIIIIIIIIIIIIIIIIIIIIIIIII22222II11111111I111111IIIIAAAAAA
IIIIIIIIIIIIIIIIIIIIIIIIIIIIIII222222I111111111I111111IIIIAAAAAA
IIIIIIIIIIIIIIIIIIIIIIIIIIIIII222222211111111111111111IIIAAAAAAA
IIIIIIIIIIIIIIIIIIIIIIIIIIIIII222222211111111111111111IIAAAAAAAA
IIIIIIIIIIIIIIIIIIIIIIIIIIIII2222222111111111111111111IIAAAAAAAA
IIIIIIIIIIIIIIIIIIIIIIIIIIIII2222221111111111111111111IAAAAAAAAA
IIIIIIIIIIIIIIIIIIIIIIIIIIII22222221111111111111111111IAAAAAAAAA
IIIIIIIIIIIIIIIIIIIIIIIIIIII22222211111111111111111111AAAAAAAAAA
IIIIIIIIIIIIIIIIIIIIIIIIIII222222211111111111111111111AAAAAAAAAA
IIIIIIIIIIIIIIIIIIIIIIIIII222222211111111111111111111AAAAAAAAAAA
IIIIIIIIIIIIIIIIIIIIIIIII222222211111111111111111111AAAAAAAAAAAA
IIIIIIIIIIIIIIIIIIIIIIII222222211111111111111111111AAAAAAAAAAAAA
IIIIIIIIIIIIIIIIIIIIIII222222211111111111111111111AAAAAAAAAAAAAA
IIIIIIIIIIIIIIIIIIIIII222222211111111111111111111AAAAAAAAAAAAAAA
IIIIIIIIIIIIIIIIIIIII222222211111111111111111111AAAAAAAAAAAAAAAA
IIIIIIIIIIIIIIIIIIII222222211111111111111111111AAAAAAAAAAAAAAAAA
IIIIIIIIIIIIIIIIIII222222211111111111111111111AAAAAAAAAAAAAAAAAA
IIIIIIIIIIIIIIIIII222222211111111111111111111AAAAAAAAAAAAAAAAAAA
IIIIIIIIIIIIIIIII222222211111111111111111111AAAAAAAAAAAAAAAAAAAA
IIIIIIIIIIIIIIII222222211111111111111111111AAAAAAAAAAAAAAAAAAAAA
IIIIIIIIIIIIIII222222211111111111111111111AAAAAAAAAAAAAAAAAAAAAA
IIIIIIIIIIIIII222222211111111111111111111AAAAAAAAAAAAAAAAAAAAAAA
IIIIIIIIIIIII222222211111111111111111111AAAAAAAAAAAAAAAAAAAAAAAA
IIIIIIIIIIIII22222211111111111111111111AAAAAAAAAAAAAAAAAAAAAAAAA
IIIIIIIIIIII222222211111111111111111111AAAAAAAAAAAAAAAAAAAAAAAAA
IIIIIIIIIII222222211111111111111111111AAAAAAAAAAAAAAAAAAAAAAAAAA
IIIIIIIIII222222211111111111111111111AAAAAAAAAAAAAAAAAAAAAAAAAAA
IIIIIIIII222222211111111111111111111AAAAAAAAAAAAAAAAAAAAAAAAAAAA
IIIIIIII222222211111111111111111111AAAAAAAAAAAAAAAAAAAAAAAAAAAAA
IIIIIII222222211111111111111111111AAAAAAAAAAAAAAAAAAAAAAAAAAAAAA
IIIIII222222211111111111111111111AAAAAAAAAAAAAAAAAAAAAAAAAAAAAAA
IIIII222222211111111111111111111AAAAAAAAAAAAAAAAAAAAAAAAAAAAAAAA
IIII222222211111111111111111111AAAAAAAAAAAAAAAAAAAAAAAAAAAAAAAAA
III222222211111111111111111111AAAAAAAAAAAAAAAAAAAAAAAAAAAAAAAAAA
II222222211111111111111111111AAAAAAAAAAAAAAAAAAAAAAAAAAAAAAAAAAA
I222222211111111111111111111AAAAAAAAAAAAAAAAAAAAAAAAAAAAAAAAAAAA
222222211111111111111111111AAAAAAAAAAAAAAAAAAAAAAAAAAAAAAAAAAAAA
22222211111111111111111111AAAAAAAAAAAAAAAAAAAAAAAAAAAAAAAAAAAAAA
2222211111111111111111111AAAAAAAAAAAAAAAAAAAAAAAAAAAAAAAAAAAAAAA
222211111111111111111111AAAAAAAAAAAAAAAAAAAAAAAAAAAAAAAAAAAAAAAA
22211111111111111111111AAAAAAAAAAAAAAAAAAAAAAAAAAAAAAAAAAAAAAAAA
2211111111111111111111AAAAAAAAAAAAAAAAAAAAAAAAAAAAAAAAAAAAAAAAAA
211111111111111111111AAAAAAAAAAAAAAAAAAAAAAAAAAAAAAAAAAAAAAAAAAA
11111111111111111111AAAAAAAAAAAAAAAAAAAAAAAAAAAAAAAAAAAAAAAAAAAA
1111111111111111111AAAAAAAAAAAAAAAAAAAAAAAAAAAAAAAAAAAAAAAAAAAAA
111111111111111111AAAAAAAAAAAAAAAAAAAAAAAAAAAAAAAAAAAAAAAAAAAAAA
11111111111111111AAAAAAAAAAAAAAAAAAAAAAAAAAAAAAAAAAAAAAAAAAAAAAA
1111111111111111AAAAAAAAAAAAAAAAAAAAAAAAAAAAAAAAAAAAAAAAAAAAAAAA
111111111111111AAAAAAAAAAAAAAAAAAAAAAAAAAAAAAAAAAAAAAAAAAAAAAAAA
11111111111111AAAAAAAAAAAAAAAAAAAAAAAAAAAAAAAAAAAAAAAAAAAAAAAAAA
1111111111111AAAAAAAAAAAAAAAAAAAAAAAAAAAAAAAAAAAAAAAAAAAAAAAAAAA
111111111111AAAAAAAAAAAAAAAAAAAAAAAAAAAAAAAAAAAAAAAAAAAAAAAAAAAA
11111111111AAAAAAAAAAAAAAAAAAAAAAAAAAAAAAAAAAAAAAAAAAAAAAAAAAAAA
1111111111AAAAAAAAAAAAAAAAAAAAAAAAAAAAAAAAAAAAAAAAAAAAAAAAAAAAAA
111111111AAAAAAAAAAAAAAAAAAAAAAAAAAAAAAAAAAAAAAAAAAAAAAAAAAAAAAA
11111111AAAAAAAAAAAAAAAAAAAAAAAAAAAAAAAAAAAAAAAAAAAAAAAAAAAAAAAA
1111111AAAAAAAAAAAAAAAAAAAAAAAAAAAAAAAAAAAAAAAAAAAAAAAAAAAAAAAAA
111111AAAAAAAAAAAAAAAAAAAAAAAAAAAAAAAAAAAAAAAAAAAAAAAAAAAAAAAAAA
11111AAAAAAAAAAAAAAAAAAAAAAAAAAAAAAAAAAAAAAAAAAAAAAAAAAAAAAAAAAA
1111AAAAAAAAAAAAAAAAAAAAAAAAAAAAAAAAAAAAAAAAAAAAAAAAAAAAAAAAAAAA
111AAAAAAAAAAAAAAAAAAAAAAAAAAAAAAAAAAAAAAAAAAAAAAAAAAAAAAAAAAAAA
11AAAAAAAAAAAAAAAAAAAAAAAAAAAAAAAAAAAAAAAAAAAAAAAAAAAAAAAAAAAAAA
1AAAAAAAAAAAAAAAAAAAAAAAAAAAAAAAAAAAAAAAAAAAAAAAAAAAAAAAAAAAAAAA
AAAAAAAAAAAAAAAAAAAAAAAAAAAAAAAAAAAAAAAAAAAAAAAAAAAAAAAAAAAAAAAA
IIIIIIIIIIIIIIIIIIIIIIIIIIIIIIIIIIIIIIIIIIIIIIIIIIIIIIIIIIIIIIIA
IIIIIIIIIIIIIIIIIIIIIIIIIIIIIIIIIIIIIIIIIIIIIIIIII1II1IIIIII1IIA
IIIIIIIIIIIIIIIIIIIIIIIIIIIIIIIIIIIIIIIIII1IIIIII11I11IIIII11IAA
IIIIIIIIIIIIIIIIIIIIIIIIIIIIIIIIIII1III1II1IIIIII11I11IIIII11IAA
IIIIIIIIIIIIIIIIIIIIIIIIIIIIIIIIIII1III1II1IIIIII11I11IIII111AAA
IIIIIIIIIIIIIIIIIIIIIIII2II2IIIIII11II11I11IIIII111111IIII111AAA
IIIIIIIIIIIIIIIIIIIIIII22I22IIIII111I111111IIII1111111III111AAAA
IIIIIIIIIIIIIIIIIIIIIII22I22IIIII111I111111IIII1111111III11AAAAA
IIIIIIIIIIIIIIIIIIIIIII22I22IIIII111I111111III11111111II111AAAAA
IIIIIIIIIIIIIIIIIIIIIII22I22IIIII111I111111III11111111I111AAAAAA
IIIIIIIIIIIIIIIIIIIIIII22I22III1I111I111111II111111111I111AAAAAA
IIIIIIIIIIIIIIIIIIIII2I22I22III1I111I111111II111111111I111AAAAAA
IIIIIIIIIIIIIIIIIIIII2I22I22III1I111I111111I1111111111111AAAAAAA
IIIIIIIIIIIIIIIIIIIII2I22I22II11I111I111111I1111111111111AAAAAAA
IIIIIIIIIIIIIIIIIIIII2I22I22II11I111I1111111111111111111AAAAAAAA
IIIIIIIIIIIIIIIIIII2I2222I22I111I11111111111111111111111AAAAAAAA
IIIIIIIIIIIIIIIIII22I2222I22111111111111111111111111111AAAAAAAAA
IIIIIIIIIIIIIIIII22222222I2111111111111111111111111111AAAAAAAAAA
IIIIIIIIIIIIIIII222222222I111111111111111111111111111AAAAAAAAAAA
IIIIIIIIIIIIIII2222222222111111111111111111111111111AAAAAAAAAAAA
IIIIIIIIIIIIII2222222222111111111111111111111111111AAAAAAAAAAAAA
IIIIIIIIIIIIII222222222111111111111111111111111111AAAAAAAAAAAAAA
IIIIIIIIIIIII2222222222111111111111111111111111111AAAAAAAAAAAAAA
IIIIIIIIIIIII222222222111111111111111111111111111AAAAAAAAAAAAAAA
IIIIIIIIIIII2222222222111111111111111111111111111AAAAAAAAAAAAAAA
IIIIIIIIIII2222222222111111111111111111111111111AAAAAAAAAAAAAAAA
IIIIIIIIII2222222222111111111111111111111111111AAAAAAAAAAAAAAAAA
IIIIIIIII2222222222111111111111111111111111111AAAAAAAAAAAAAAAAAA
IIIIIIII2222222222111111111111111111111111111AAAAAAAAAAAAAAAAAAA
IIIIIII2222222222111111111111111111111111111AAAAAAAAAAAAAAAAAAAA
IIIIII2222222222111111111111111111111111111AAAAAAAAAAAAAAAAAAAAA
IIIII2222222222111111111111111111111111111AAAAAAAAAAAAAAAAAAAAAA
IIIII222222222211111111111111111111111111AAAAAAAAAAAAAAAAAAAAAAA
IIIII222222222111111111111111111111111111AAAAAAAAAAAAAAAAAAAAAAA
III2I22222222111111111111111111111111111AAAAAAAAAAAAAAAAAAAAAAAA
II22I2222222111111111111111111111111111AAAAAAAAAAAAAAAAAAAAAAAAA
II222222222111111111111111111111111111AAAAAAAAAAAAAAAAAAAAAAAAAA
I2222222222111111111111111111111111111AAAAAAAAAAAAAAAAAAAAAAAAAA
2222222222111111111111111111111111111AAAAAAAAAAAAAAAAAAAAAAAAAAA
222222222111111111111111111111111111AAAAAAAAAAAAAAAAAAAAAAAAAAAA
22222222111111111111111111111111111AAAAAAAAAAAAAAAAAAAAAAAAAAAAA
2222222111111111111111111111111111AAAAAAAAAAAAAAAAAAAAAAAAAAAAAA
222222111111111111111111111111111AAAAAAAAAAAAAAAAAAAAAAAAAAAAAAA
22222111111111111111111111111111AAAAAAAAAAAAAAAAAAAAAAAAAAAAAAAA
2222111111111111111111111111111AAAAAAAAAAAAAAAAAAAAAAAAAAAAAAAAA
222111111111111111111111111111AAAAAAAAAAAAAAAAAAAAAAAAAAAAAAAAAA
22111111111111111111111111111AAAAAAAAAAAAAAAAAAAAAAAAAAAAAAAAAAA
2111111111111111111111111111AAAAAAAAAAAAAAAAAAAAAAAAAAAAAAAAAAAA
111111111111111111111111111AAAAAAAAAAAAAAAAAAAAAAAAAAAAAAAAAAAAA
11111111111111111111111111AAAAAAAAAAAAAAAAAAAAAAAAAAAAAAAAAAAAAA
1111111111111111111111111AAAAAAAAAAAAAAAAAAAAAAAAAAAAAAAAAAAAAAA
111111111111111111111111AAAAAAAAAAAAAAAAAAAAAAAAAAAAAAAAAAAAAAAA
11111111111111111111111AAAAAAAAAAAAAAAAAAAAAAAAAAAAAAAAAAAAAAAAA
1111111111111111111111AAAAAAAAAAAAAAAAAAAAAAAAAAAAAAAAAAAAAAAAAA
111111111111111111111AAAAAAAAAAAAAAAAAAAAAAAAAAAAAAAAAAAAAAAAAAA
11111111111111111111AAAAAAAAAAAAAAAAAAAAAAAAAAAAAAAAAAAAAAAAAAAA
1111111111111111111AAAAAAAAAAAAAAAAAAAAAAAAAAAAAAAAAAAAAAAAAAAAA
111111111111111111AAAAAAAAAAAAAAAAAAAAAAAAAAAAAAAAAAAAAAAAAAAAAA
11111111111111111AAAAAAAAAAAAAAAAAAAAAAAAAAAAAAAAAAAAAAAAAAAAAAA
1111111111111111AAAAAAAAAAAAAAAAAAAAAAAAAAAAAAAAAAAAAAAAAAAAAAAA
111111111111111AAAAAAAAAAAAAAAAAAAAAAAAAAAAAAAAAAAAAAAAAAAAAAAAA
11111111111111AAAAAAAAAAAAAAAAAAAAAAAAAAAAAAAAAAAAAAAAAAAAAAAAAA
1111111111111AAAAAAAAAAAAAAAAAAAAAAAAAAAAAAAAAAAAAAAAAAAAAAAAAAA
111111111111AAAAAAAAAAAAAAAAAAAAAAAAAAAAAAAAAAAAAAAAAAAAAAAAAAAA
11111111111AAAAAAAAAAAAAAAAAAAAAAAAAAAAAAAAAAAAAAAAAAAAAAAAAAAAA
1111111111AAAAAAAAAAAAAAAAAAAAAAAAAAAAAAAAAAAAAAAAAAAAAAAAAAAAAA
111111111AAAAAAAAAAAAAAAAAAAAAAAAAAAAAAAAAAAAAAAAAAAAAAAAAAAAAAA
11111111AAAAAAAAAAAAAAAAAAAAAAAAAAAAAAAAAAAAAAAAAAAAAAAAAAAAAAAA
1111111AAAAAAAAAAAAAAAAAAAAAAAAAAAAAAAAAAAAAAAAAAAAAAAAAAAAAAAAA
111111AAAAAAAAAAAAAAAAAAAAAAAAAAAAAAAAAAAAAAAAAAAAAAAAAAAAAAAAAA
11111AAAAAAAAAAAAAAAAAAAAAAAAAAAAAAAAAAAAAAAAAAAAAAAAAAAAAAAAAAA
1111AAAAAAAAAAAAAAAAAAAAAAAAAAAAAAAAAAAAAAAAAAAAAAAAAAAAAAAAAAAA
111AAAAAAAAAAAAAAAAAAAAAAAAAAAAAAAAAAAAAAAAAAAAAAAAAAAAAAAAAAAAA
11AAAAAAAAAAAAAAAAAAAAAAAAAAAAAAAAAAAAAAAAAAAAAAAAAAAAAAAAAAAAAA
1AAAAAAAAAAAAAAAAAAAAAAAAAAAAAAAAAAAAAAAAAAAAAAAAAAAAAAAAAAAAAAA
AAAAAAAAAAAAAAAAAAAAAAAAAAAAAAAAAAAAAAAAAAAAAAAAAAAAAAAAAAAAAAAA
IIIIIIIIIIIIIIIIIIIIIIIIIIIIIIIIIIIIIIIIIII1IIIIII1II1IIIIII1IIA
IIIIIIIIIIIIIIIIIIIIIIIIIIIII2IIIIII1IIIIII1IIIIII1II1IIIIII1IIA
IIIIIIIIIIIIIIIIIIIIIIIIIIIII2IIIIII1IIIII11IIIII11I11IIIII11IAA
IIIIIIIIIIIIIIIIIIIIIIIIIIII22IIIII11IIIII11IIIII11I11IIIII11IAA
IIIIIIIIIIIIIIIIIIIIIIIIIIII22IIIII11IIIII11IIIII11I11IIII111AAA
IIIIIIIIIIIIIIIIIIIIIIIIIII222IIII111IIII111IIII111111IIII111AAA
IIIIIIIIIIIIIIIIIIIIIIIIIII222IIII111IIII111IIII111111III111AAAA
IIIIIIIIIIIIIIIIIIIIIIIIIII222IIII111IIII111III1111111III111AAAA
IIIIIIIIIIIIIIIIIIIIIIIIIII222IIII111IIII111III1111111III11AAAAA
IIIIIIIIIIIIIIIIIIIIIIIII2I222II1I111II1I111II11111111II111AAAAA
IIIIIIIIIIIIIIIIIIIIIIII22I222I11I111I11I111I111111111I111AAAAAA
IIIIIIIIIIIIIIIIIIIIIIII22I222I11I111I11I111I111111111I11AAAAAAA
IIIIIIIIIIIIIIIIIIIIIIII22I222I11I111I11I1111111111111111AAAAAAA
IIIIIIIIIIIIIIIIIIIIIIII22I221I11I111I11I111111111111111AAAAAAAA
IIIIIIIIIIIIIIIIIIIIII2I22I221I11I111I11I111111111111111AAAAAAAA
IIIIIIIIIIIIIIIIIIIII22I22I211I11I111I11I11111111111111AAAAAAAAA
IIIIIIIIIIIIIIIIIIII222I22I111I11I111I11I1111111111111AAAAAAAAAA
IIIIIIIIIIIIIIIIIII2222I221111I111111I111111111111111AAAAAAAAAAA
IIIIIIIIIIIIIIIIII22222I211111I111111I11111111111111AAAAAAAAAAAA
IIIIIIIIIIIIIIIII222222I111111I111111I1111111111111AAAAAAAAAAAAA
IIIIIIIIIIIIIIII2222222111111111111111111111111111AAAAAAAAAAAAAA
IIIIIIIIIIIIIIII222222111111111111111111111111111AAAAAAAAAAAAAAA
IIIIIIIIIIIIII2I22222111111111111111111111111111AAAAAAAAAAAAAAAA
IIIIIIIIIIIII22I2222111111111111111111111111111AAAAAAAAAAAAAAAAA
IIIIIIIIIIII222I222111111111111111111111111111AAAAAAAAAAAAAAAAAA
IIIIIIIIIII2222I22111111111111111111111111111AAAAAAAAAAAAAAAAAAA
IIIIIIIIII22222I2111111111111111111111111111AAAAAAAAAAAAAAAAAAAA
IIIIIIIII222222I111111111111111111111111111AAAAAAAAAAAAAAAAAAAAA
IIIIIIII2222222111111111111111111111111111AAAAAAAAAAAAAAAAAAAAAA
IIIIIII2222222111111111111111111111111111AAAAAAAAAAAAAAAAAAAAAAA
IIIIII2222222111111111111111111111111111AAAAAAAAAAAAAAAAAAAAAAAA
IIIII2222222111111111111111111111111111AAAAAAAAAAAAAAAAAAAAAAAAA
IIIII222222111111111111111111111111111AAAAAAAAAAAAAAAAAAAAAAAAAA
IIII2222222111111111111111111111111111AAAAAAAAAAAAAAAAAAAAAAAAAA
IIII222222111111111111111111111111111AAAAAAAAAAAAAAAAAAAAAAAAAAA
III2222222111111111111111111111111111AAAAAAAAAAAAAAAAAAAAAAAAAAA
II2222222111111111111111111111111111AAAAAAAAAAAAAAAAAAAAAAAAAAAA
I2222222111111111111111111111111111AAAAAAAAAAAAAAAAAAAAAAAAAAAAA
2222222111111111111111111111111111AAAAAAAAAAAAAAAAAAAAAAAAAAAAAA
222222111111111111111111111111111AAAAAAAAAAAAAAAAAAAAAAAAAAAAAAA
22222111111111111111111111111111AAAAAAAAAAAAAAAAAAAAAAAAAAAAAAAA
2222111111111111111111111111111AAAAAAAAAAAAAAAAAAAAAAAAAAAAAAAAA
222111111111111111111111111111AAAAAAAAAAAAAAAAAAAAAAAAAAAAAAAAAA
22111111111111111111111111111AAAAAAAAAAAAAAAAAAAAAAAAAAAAAAAAAAA
2111111111111111111111111111AAAAAAAAAAAAAAAAAAAAAAAAAAAAAAAAAAAA
111111111111111111111111111AAAAAAAAAAAAAAAAAAAAAAAAAAAAAAAAAAAAA
11111111111111111111111111AAAAAAAAAAAAAAAAAAAAAAAAAAAAAAAAAAAAAA
1111111111111111111111111AAAAAAAAAAAAAAAAAAAAAAAAAAAAAAAAAAAAAAA
111111111111111111111111AAAAAAAAAAAAAAAAAAAAAAAAAAAAAAAAAAAAAAAA
11111111111111111111111AAAAAAAAAAAAAAAAAAAAAAAAAAAAAAAAAAAAAAAAA
1111111111111111111111AAAAAAAAAAAAAAAAAAAAAAAAAAAAAAAAAAAAAAAAAA
111111111111111111111AAAAAAAAAAAAAAAAAAAAAAAAAAAAAAAAAAAAAAAAAAA
11111111111111111111AAAAAAAAAAAAAAAAAAAAAAAAAAAAAAAAAAAAAAAAAAAA
1111111111111111111AAAAAAAAAAAAAAAAAAAAAAAAAAAAAAAAAAAAAAAAAAAAA
111111111111111111AAAAAAAAAAAAAAAAAAAAAAAAAAAAAAAAAAAAAAAAAAAAAA
11111111111111111AAAAAAAAAAAAAAAAAAAAAAAAAAAAAAAAAAAAAAAAAAAAAAA
1111111111111111AAAAAAAAAAAAAAAAAAAAAAAAAAAAAAAAAAAAAAAAAAAAAAAA
111111111111111AAAAAAAAAAAAAAAAAAAAAAAAAAAAAAAAAAAAAAAAAAAAAAAAA
11111111111111AAAAAAAAAAAAAAAAAAAAAAAAAAAAAAAAAAAAAAAAAAAAAAAAAA
1111111111111AAAAAAAAAAAAAAAAAAAAAAAAAAAAAAAAAAAAAAAAAAAAAAAAAAA
111111111111AAAAAAAAAAAAAAAAAAAAAAAAAAAAAAAAAAAAAAAAAAAAAAAAAAAA
11111111111AAAAAAAAAAAAAAAAAAAAAAAAAAAAAAAAAAAAAAAAAAAAAAAAAAAAA
1111111111AAAAAAAAAAAAAAAAAAAAAAAAAAAAAAAAAAAAAAAAAAAAAAAAAAAAAA
111111111AAAAAAAAAAAAAAAAAAAAAAAAAAAAAAAAAAAAAAAAAAAAAAAAAAAAAAA
11111111AAAAAAAAAAAAAAAAAAAAAAAAAAAAAAAAAAAAAAAAAAAAAAAAAAAAAAAA
1111111AAAAAAAAAAAAAAAAAAAAAAAAAAAAAAAAAAAAAAAAAAAAAAAAAAAAAAAAA
111111AAAAAAAAAAAAAAAAAAAAAAAAAAAAAAAAAAAAAAAAAAAAAAAAAAAAAAAAAA
11111AAAAAAAAAAAAAAAAAAAAAAAAAAAAAAAAAAAAAAAAAAAAAAAAAAAAAAAAAAA
1111AAAAAAAAAAAAAAAAAAAAAAAAAAAAAAAAAAAAAAAAAAAAAAAAAAAAAAAAAAAA
111AAAAAAAAAAAAAAAAAAAAAAAAAAAAAAAAAAAAAAAAAAAAAAAAAAAAAAAAAAAAA
11AAAAAAAAAAAAAAAAAAAAAAAAAAAAAAAAAAAAAAAAAAAAAAAAAAAAAAAAAAAAAA
1AAAAAAAAAAAAAAAAAAAAAAAAAAAAAAAAAAAAAAAAAAAAAAAAAAAAAAAAAAAAAAA
AAAAAAAAAAAAAAAAAAAAAAAAAAAAAAAAAAAAAAAAAAAAAAAAAAAAAAAAAAAAAAAA
IIIIIIIIIIIIIIIIIIIIIIIIIIIIIIIIIIIIIIIIIIIIIIIIIIIIIIIIIIII1IIA
IIIIIIIIIIIIIIIIIIIIIIIIIIIIIIIIIIII11IIIII1IIIIII1II1IIIIII1IIA
IIIIIIIIIIIIIIIIIIIIIIIIIIIIIIIIIIII11IIIII1IIIIII1I11IIIII11IAA
IIIIIIIIIIIIIIIIIIIIIIIIIIIIIIIIIII111IIII11IIIII11I11IIIII11IAA
IIIIIIIIIIIIIIIIIIIIIIIIIIIIIIIIII1111III111IIII111111IIII111AAA
IIIIIIIIIIIIIIIIIIIIIIIIIIIIIIIII11111II1111III1111111III111AAAA
IIIIIIIIIIIIIIIIIIIIIIIIIIIIIIIII11111II1111III1111111II111AAAAA
IIIIIIIIIIIIIIIIIIIIIIIIIIIIIIIII11111I11111II11111111II111AAAAA
IIIIIIIIIIIIIIIIIIIIIIIIIIIIIIII111111I11111II11111111II111AAAAA
IIIIIIIIIIIIIIIIIIIIIIIIIIIIIII1111111111111I111111111I111AAAAAA
IIIIIIIIIIIIIIIIIIIIIIIIIIIIII111111111111111111111111111AAAAAAA
IIIIIIIIIIIIIIIIIIIIIIIIIIIII111111111111111111111111111AAAAAAAA
IIIIIIIIIIIIIIIIIIIIIIIIIIII111111111111111111111111111AAAAAAAAA
IIIIIIIIIIIIIIIIIIIIIIIIIII111111111111111111111111111AAAAAAAAAA
IIIIIIIIIIIIIIIIIIIIIIIIII111111111111111111111111111AAAAAAAAAAA
IIIIIIIIIIIIIIIIIIIIIIIII111111111111111111111111111AAAAAAAAAAAA
IIIIIIIIIIIIIIIIIIIIIIII111111111111111111111111111AAAAAAAAAAAAA
IIIIIIIIIIIIIIIIIIIIIII111111111111111111111111111AAAAAAAAAAAAAA
IIIIIIIIIIIIIIIIIIIIII111111111111111111111111111AAAAAAAAAAAAAAA
IIIIIIIIIIIIIIIIIIIII111111111111111111111111111AAAAAAAAAAAAAAAA
IIIIIIIIIIIIIIIIIIII111111111111111111111111111AAAAAAAAAAAAAAAAA
IIIIIIIIIIIIIIIIIII111111111111111111111111111AAAAAAAAAAAAAAAAAA
IIIIIIIIIIIIIIIIII111111111111111111111111111AAAAAAAAAAAAAAAAAAA
IIIIIIIIIIIIIIIII111111111111111111111111111AAAAAAAAAAAAAAAAAAAA
IIIIIIIIIIIIIIII111111111111111111111111111AAAAAAAAAAAAAAAAAAAAA
IIIIIIIIIIIIIII111111111111111111111111111AAAAAAAAAAAAAAAAAAAAAA
IIIIIIIIIIIIII111111111111111111111111111AAAAAAAAAAAAAAAAAAAAAAA
IIIIIIIIIIIII111111111111111111111111111AAAAAAAAAAAAAAAAAAAAAAAA
IIIIIIIIIIII111111111111111111111111111AAAAAAAAAAAAAAAAAAAAAAAAA
IIIIIIIIIII111111111111111111111111111AAAAAAAAAAAAAAAAAAAAAAAAAA
IIIIIIIIII111111111111111111111111111AAAAAAAAAAAAAAAAAAAAAAAAAAA
IIIIIIIII111111111111111111111111111AAAAAAAAAAAAAAAAAAAAAAAAAAAA
IIIIIIII111111111111111111111111111AAAAAAAAAAAAAAAAAAAAAAAAAAAAA
IIIIIII111111111111111111111111111AAAAAAAAAAAAAAAAAAAAAAAAAAAAAA
IIIIII111111111111111111111111111AAAAAAAAAAAAAAAAAAAAAAAAAAAAAAA
IIIII111111111111111111111111111AAAAAAAAAAAAAAAAAAAAAAAAAAAAAAAA
IIII111111111111111111111111111AAAAAAAAAAAAAAAAAAAAAAAAAAAAAAAAA
III111111111111111111111111111AAAAAAAAAAAAAAAAAAAAAAAAAAAAAAAAAA
II111111111111111111111111111AAAAAAAAAAAAAAAAAAAAAAAAAAAAAAAAAAA
I111111111111111111111111111AAAAAAAAAAAAAAAAAAAAAAAAAAAAAAAAAAAA
111111111111111111111111111AAAAAAAAAAAAAAAAAAAAAAAAAAAAAAAAAAAAA
11111111111111111111111111AAAAAAAAAAAAAAAAAAAAAAAAAAAAAAAAAAAAAA
1111111111111111111111111AAAAAAAAAAAAAAAAAAAAAAAAAAAAAAAAAAAAAAA
111111111111111111111111AAAAAAAAAAAAAAAAAAAAAAAAAAAAAAAAAAAAAAAA
11111111111111111111111AAAAAAAAAAAAAAAAAAAAAAAAAAAAAAAAAAAAAAAAA
1111111111111111111111AAAAAAAAAAAAAAAAAAAAAAAAAAAAAAAAAAAAAAAAAA
111111111111111111111AAAAAAAAAAAAAAAAAAAAAAAAAAAAAAAAAAAAAAAAAAA
11111111111111111111AAAAAAAAAAAAAAAAAAAAAAAAAAAAAAAAAAAAAAAAAAAA
1111111111111111111AAAAAAAAAAAAAAAAAAAAAAAAAAAAAAAAAAAAAAAAAAAAA
111111111111111111AAAAAAAAAAAAAAAAAAAAAAAAAAAAAAAAAAAAAAAAAAAAAA
11111111111111111AAAAAAAAAAAAAAAAAAAAAAAAAAAAAAAAAAAAAAAAAAAAAAA
1111111111111111AAAAAAAAAAAAAAAAAAAAAAAAAAAAAAAAAAAAAAAAAAAAAAAA
111111111111111AAAAAAAAAAAAAAAAAAAAAAAAAAAAAAAAAAAAAAAAAAAAAAAAA
11111111111111AAAAAAAAAAAAAAAAAAAAAAAAAAAAAAAAAAAAAAAAAAAAAAAAAA
1111111111111AAAAAAAAAAAAAAAAAAAAAAAAAAAAAAAAAAAAAAAAAAAAAAAAAAA
111111111111AAAAAAAAAAAAAAAAAAAAAAAAAAAAAAAAAAAAAAAAAAAAAAAAAAAA
11111111111AAAAAAAAAAAAAAAAAAAAAAAAAAAAAAAAAAAAAAAAAAAAAAAAAAAAA
1111111111AAAAAAAAAAAAAAAAAAAAAAAAAAAAAAAAAAAAAAAAAAAAAAAAAAAAAA
111111111AAAAAAAAAAAAAAAAAAAAAAAAAAAAAAAAAAAAAAAAAAAAAAAAAAAAAAA
11111111AAAAAAAAAAAAAAAAAAAAAAAAAAAAAAAAAAAAAAAAAAAAAAAAAAAAAAAA
1111111AAAAAAAAAAAAAAAAAAAAAAAAAAAAAAAAAAAAAAAAAAAAAAAAAAAAAAAAA
111111AAAAAAAAAAAAAAAAAAAAAAAAAAAAAAAAAAAAAAAAAAAAAAAAAAAAAAAAAA
11111AAAAAAAAAAAAAAAAAAAAAAAAAAAAAAAAAAAAAAAAAAAAAAAAAAAAAAAAAAA
1111AAAAAAAAAAAAAAAAAAAAAAAAAAAAAAAAAAAAAAAAAAAAAAAAAAAAAAAAAAAA
111AAAAAAAAAAAAAAAAAAAAAAAAAAAAAAAAAAAAAAAAAAAAAAAAAAAAAAAAAAAAA
11AAAAAAAAAAAAAAAAAAAAAAAAAAAAAAAAAAAAAAAAAAAAAAAAAAAAAAAAAAAAAA
1AAAAAAAAAAAAAAAAAAAAAAAAAAAAAAAAAAAAAAAAAAAAAAAAAAAAAAAAAAAAAAA
AAAAAAAAAAAAAAAAAAAAAAAAAAAAAAAAAAAAAAAAAAAAAAAAAAAAAAAAAAAAAAAA
IIIIIIIIIIIIIIIIIIIIIIIIIIIIIIIIIIIIIIIIIIIIIIIIIIIIIIIIIIII1IIA
IIIIIIIIIIIIIIIIIIIIIIIIIIIIIIII1IIIIII1II1IIIIIII1II1IIIIII1IIA
IIIIIIIIIIIIIIIIIIIIIIIIIIIIIIII1IIIIII1II1IIIIIII1II1IIIII11IAA
IIIIIIIIIIIIIIIIIIIIIIIIIIIIIIII1IIIII11I11IIIIIII1I11IIIII11IAA
IIIIIIIIIIIIIIIIIIIIIIIIIIII1II11IIIII11I11IIIIII11I11IIIII11IAA
IIIIIIIIIIIIIIIIIIIIIIIIIII11I111IIII111111IIIII111111IIII111AAA
IIIIIIIIIIIIIIIIIIIIIIIIIII11I111III1111111IIIII111111III111AAAA
IIIIIIIIIIIIIIIIIIIIIIIIIII11I111III1111111IIII1111111III111AAAA
IIIIIIIIIIIIIIIIIIIIIIIIIII11I111III1111111IIII1111111II111AAAAA
IIIIIIIIIIIIIIIIIIIIIIIIIII11I111II11111111IIII1111111II111AAAAA
IIIIIIIIIIIIIIIIIIIIIIIIIII11I111I111111111IIII1111111I111AAAAAA
IIIIIIIIIIIIIIIIIIIIIIII1II11I111I111111111II1I1111111I111AAAAAA
IIIIIIIIIIIIIIIIIIIIIIII1II11I111I111111111II1I1111111111AAAAAAA
IIIIIIIIIIIIIIIIIIIIIIII1I111I1111111111111I11I1111111111AAAAAAA
IIIIIIIIIIIIIIIIIIIIIIII1I111I1111111111111I111111111111AAAAAAAA
IIIIIIIIIIIIIIIIIIIIII1I11111I11111111111111111111111111AAAAAAAA
IIIIIIIIIIIIIIIIIIIII11I11111I1111111111111111111111111AAAAAAAAA
IIIIIIIIIIIIIIIIIIII111111111I111111111111111111111111AAAAAAAAAA
IIIIIIIIIIIIIIIIIII1111111111111111111111111111111111AAAAAAAAAAA
IIIIIIIIIIIIIIIIII1111111111111111111111111111111111AAAAAAAAAAAA
IIIIIIIIIIIIIIIII1111111111111111111111111111111111AAAAAAAAAAAAA
[...]
IIIIIIIIIIIIIIIIIIIIIIIII22222II22222II11111111II11111IIIIIAAAAA
IIIIIIIIIIIIIIIIIIIIIIIII22222II22222II11111111II11111IIIIAAAAAA
IIIIIIIIIIIIIIIIIIIIIIII222222I222222I111111111I111111IIIIAAAAAA
IIIIIIIIIIIIIIIIIIIIIIII222222I22222211111111111111111IIIAAAAAAA
IIIIIIIIIIIIIIIIIIIIIII2222222222222211111111111111111IIIAAAAAAA
IIIIIIIIIIIIIIIIIIIIII22222222222222111111111111111111IIAAAAAAAA
IIIIIIIIIIIIIIIIIIIII222222222222221111111111111111111IAAAAAAAAA
IIIIIIIIIIIIIIIIIIII2222222222222211111111111111111111AAAAAAAAAA
IIIIIIIIIIIIIIIIIII2222222222222211111111111111111111AAAAAAAAAAA
IIIIIIIIIIIIIIIIII2222222222222211111111111111111111AAAAAAAAAAAA
IIIIIIIIIIIIIIIII2222222222222211111111111111111111AAAAAAAAAAAAA
IIIIIIIIIIIIIIII2222222222222211111111111111111111AAAAAAAAAAAAAA
IIIIIIIIIIIIIII2222222222222211111111111111111111AAAAAAAAAAAAAAA
IIIIIIIIIIIIII2222222222222211111111111111111111AAAAAAAAAAAAAAAA
IIIIIIIIIIIII2222222222222211111111111111111111AAAAAAAAAAAAAAAAA
IIIIIIIIIIII2222222222222211111111111111111111AAAAAAAAAAAAAAAAAA
IIIIIIIIIII2222222222222211111111111111111111AAAAAAAAAAAAAAAAAAA
IIIIIIIIIII222222222222221111111111111111111AAAAAAAAAAAAAAAAAAAA
IIIIIIIIIII22222222222222111111111111111111AAAAAAAAAAAAAAAAAAAAA
IIIIIIIII2I22222222222212111111111111111111AAAAAAAAAAAAAAAAAAAAA
IIIIIIII22I2222222222211211111111111111111AAAAAAAAAAAAAAAAAAAAAA
IIIIIII222I222222222211111111111111111111AAAAAAAAAAAAAAAAAAAAAAA
IIIIII2222I22222222211111111111111111111AAAAAAAAAAAAAAAAAAAAAAAA
IIIII22222I2222222211111111111111111111AAAAAAAAAAAAAAAAAAAAAAAAA
IIIII22222I222222211111111111111111111AAAAAAAAAAAAAAAAAAAAAAAAAA
IIIII22222I22222221111111111111111111AAAAAAAAAAAAAAAAAAAAAAAAAAA
IIIII22222I2222222111111111111111111AAAAAAAAAAAAAAAAAAAAAAAAAAAA
II2II22222I2222212111111111111111111AAAAAAAAAAAAAAAAAAAAAAAAAAAA
I22II22222I222211211111111111111111AAAAAAAAAAAAAAAAAAAAAAAAAAAAA
222II22222I22211111111111111111111AAAAAAAAAAAAAAAAAAAAAAAAAAAAAA
222II22222I2211111111111111111111AAAAAAAAAAAAAAAAAAAAAAAAAAAAAAA
222II22222I211111111111111111111AAAAAAAAAAAAAAAAAAAAAAAAAAAAAAAA
222I222222I11111111111111111111AAAAAAAAAAAAAAAAAAAAAAAAAAAAAAAAA
222222222211111111111111111111AAAAAAAAAAAAAAAAAAAAAAAAAAAAAAAAAA
22222222211111111111111111111AAAAAAAAAAAAAAAAAAAAAAAAAAAAAAAAAAA
2222222211111111111111111111AAAAAAAAAAAAAAAAAAAAAAAAAAAAAAAAAAAA
222222211111111111111111111AAAAAAAAAAAAAAAAAAAAAAAAAAAAAAAAAAAAA
22222211111111111111111111AAAAAAAAAAAAAAAAAAAAAAAAAAAAAAAAAAAAAA
2222211111111111111111111AAAAAAAAAAAAAAAAAAAAAAAAAAAAAAAAAAAAAAA
222221111111111111111111AAAAAAAAAAAAAAAAAAAAAAAAAAAAAAAAAAAAAAAA
222211111111111111111111AAAAAAAAAAAAAAAAAAAAAAAAAAAAAAAAAAAAAAAA
22211111111111111111111AAAAAAAAAAAAAAAAAAAAAAAAAAAAAAAAAAAAAAAAA
2211111111111111111111AAAAAAAAAAAAAAAAAAAAAAAAAAAAAAAAAAAAAAAAAA
211111111111111111111AAAAAAAAAAAAAAAAAAAAAAAAAAAAAAAAAAAAAAAAAAA
21111111111111111111AAAAAAAAAAAAAAAAAAAAAAAAAAAAAAAAAAAAAAAAAAAA
11111111111111111111AAAAAAAAAAAAAAAAAAAAAAAAAAAAAAAAAAAAAAAAAAAA
1111111111111111111AAAAAAAAAAAAAAAAAAAAAAAAAAAAAAAAAAAAAAAAAAAAA
111111111111111111AAAAAAAAAAAAAAAAAAAAAAAAAAAAAAAAAAAAAAAAAAAAAA
11111111111111111AAAAAAAAAAAAAAAAAAAAAAAAAAAAAAAAAAAAAAAAAAAAAAA
1111111111111111AAAAAAAAAAAAAAAAAAAAAAAAAAAAAAAAAAAAAAAAAAAAAAAA
111111111111111AAAAAAAAAAAAAAAAAAAAAAAAAAAAAAAAAAAAAAAAAAAAAAAAA
11111111111111AAAAAAAAAAAAAAAAAAAAAAAAAAAAAAAAAAAAAAAAAAAAAAAAAA
1111111111111AAAAAAAAAAAAAAAAAAAAAAAAAAAAAAAAAAAAAAAAAAAAAAAAAAA
111111111111AAAAAAAAAAAAAAAAAAAAAAAAAAAAAAAAAAAAAAAAAAAAAAAAAAAA
11111111111AAAAAAAAAAAAAAAAAAAAAAAAAAAAAAAAAAAAAAAAAAAAAAAAAAAAA
1111111111AAAAAAAAAAAAAAAAAAAAAAAAAAAAAAAAAAAAAAAAAAAAAAAAAAAAAA
111111111AAAAAAAAAAAAAAAAAAAAAAAAAAAAAAAAAAAAAAAAAAAAAAAAAAAAAAA
11111111AAAAAAAAAAAAAAAAAAAAAAAAAAAAAAAAAAAAAAAAAAAAAAAAAAAAAAAA
1111111AAAAAAAAAAAAAAAAAAAAAAAAAAAAAAAAAAAAAAAAAAAAAAAAAAAAAAAAA
111111AAAAAAAAAAAAAAAAAAAAAAAAAAAAAAAAAAAAAAAAAAAAAAAAAAAAAAAAAA
11111AAAAAAAAAAAAAAAAAAAAAAAAAAAAAAAAAAAAAAAAAAAAAAAAAAAAAAAAAAA
1111AAAAAAAAAAAAAAAAAAAAAAAAAAAAAAAAAAAAAAAAAAAAAAAAAAAAAAAAAAAA
111AAAAAAAAAAAAAAAAAAAAAAAAAAAAAAAAAAAAAAAAAAAAAAAAAAAAAAAAAAAAA
11AAAAAAAAAAAAAAAAAAAAAAAAAAAAAAAAAAAAAAAAAAAAAAAAAAAAAAAAAAAAAA
1AAAAAAAAAAAAAAAAAAAAAAAAAAAAAAAAAAAAAAAAAAAAAAAAAAAAAAAAAAAAAAA
AAAAAAAAAAAAAAAAAAAAAAAAAAAAAAAAAAAAAAAAAAAAAAAAAAAAAAAAAAAAAAAA
IIIIIIIIIIIIIIIIIIIIIIIIIIIIIIIIIIIIIIIIIIIIIIIIIIIIIIII2III1IIA
IIIIIIIIIIIIIIIIIIIIIIIIIIIIIIIIIIIIIIIIIIIIIIIIIIIIIII22II11IAA
IIIIIIIIIIIIIIIIIIIIIIIIIIIIIIIIIIIIIIIIIIIIIIIIIIIIII222I111AAA
IIIIIIIIIIIIIIIIIIIIIIIIIIIIIIIIIIIIIIIIIIIIIIIIIIIII2222111AAAA
IIIIIIIIIIIIIIIIIIIIIIIIIIIIIIIIIIIIIIIIIIIIIIIIIIII2222111AAAAA
IIIIIIIIIIIIIIIIIIIIIIIIIIIIIIIIIIIIIIIIIIIIIIIIIII2222111AAAAAA
IIIIIIIIIIIIIIIIIIIII2II2IIIIII22IIIII1IIIIII1II1II2222111AAAAAA
IIIIIIIIIIIIIIIIIIII22I22IIIII222IIII11IIIII11I11II222211AAAAAAA
IIIIIIIIIIIIIIIIIIII22I22IIIII222IIII11IIIII11111II22221AAAAAAAA
IIIIIIIIIIIIIIIIIII222222IIII2222III111IIII111111II22221AAAAAAAA
IIIIIIIIIIIIIIIIII2222222III22222II1111III1111111II2222AAAAAAAAA
IIIIIIIIIIIIIIIIII2222222III22222II1111II11111111II222AAAAAAAAAA
IIIIIIIIIIIIIIIII22222222II222222I11111II11111111II222AAAAAAAAAA
IIIIIIIIIIIIIIIII22222222II222222I11111II11111111II22AAAAAAAAAAA
IIIIIIIIIIIIIIIII22222222II222222111111I111111111II22AAAAAAAAAAA
IIIIIIIIIIIIIIIII22222222I2222222111111I111111111II22AAAAAAAAAAA
IIIIIIIIIIIIIIIII22222222I2222222111111I111111111II2AAAAAAAAAAAA
IIIIIIIIIIIIIII2I22222222222222211111111111111111II2AAAAAAAAAAAA
IIIIIIIIIIIIII22I22222222222222111111111111111111IIAAAAAAAAAAAAA
IIIIIIIIIIIIII22I22222222222222111111111111111111IAAAAAAAAAAAAAA
IIIIIIIIIIIIII22222222222222221111111111111111111IAAAAAAAAAAAAAA
IIIIIIIIIIIIII22222222222222221111111111111111111AAAAAAAAAAAAAAA
IIIIIIIIIIII2I22222222222222211111111111111111111AAAAAAAAAAAAAAA
IIIIIIIIIII22I2222222222222211111111111111111111AAAAAAAAAAAAAAAA
IIIIIIIIII2222222222222222211111111111111111111AAAAAAAAAAAAAAAAA
IIIIIIIII2222222222222222211111111111111111111AAAAAAAAAAAAAAAAAA
IIIIIIII2222222222222222211111111111111111111AAAAAAAAAAAAAAAAAAA
IIIIIIII222222222222222221111111111111111111AAAAAAAAAAAAAAAAAAAA
IIIIIII2222222222222222211111111111111111111AAAAAAAAAAAAAAAAAAAA
IIIIII2222222222222222211111111111111111111AAAAAAAAAAAAAAAAAAAAA
IIIIII222222222222222211111111111111111111AAAAAAAAAAAAAAAAAAAAAA
IIIII2222222222222222211111111111111111111AAAAAAAAAAAAAAAAAAAAAA
IIII2222222222222222211111111111111111111AAAAAAAAAAAAAAAAAAAAAAA
IIII222222222222222221111111111111111111AAAAAAAAAAAAAAAAAAAAAAAA
IIII22222222222222222111111111111111111AAAAAAAAAAAAAAAAAAAAAAAAA
II2I22222222222222212111111111111111111AAAAAAAAAAAAAAAAAAAAAAAAA
I22I2222222222222211211111111111111111AAAAAAAAAAAAAAAAAAAAAAAAAA
I22I222222222222221121111111111111111AAAAAAAAAAAAAAAAAAAAAAAAAAA
I22I22222222222212112111111111111111AAAAAAAAAAAAAAAAAAAAAAAAAAAA
I22I2222222222211211211111111111111AAAAAAAAAAAAAAAAAAAAAAAAAAAAA
222I222222222211121121111111111111AAAAAAAAAAAAAAAAAAAAAAAAAAAAAA
222I22222222211112111111111111111AAAAAAAAAAAAAAAAAAAAAAAAAAAAAAA
222I2222222211111211111111111111AAAAAAAAAAAAAAAAAAAAAAAAAAAAAAAA
222I222222221111121111111111111AAAAAAAAAAAAAAAAAAAAAAAAAAAAAAAAA
222I222222211111121111111111111AAAAAAAAAAAAAAAAAAAAAAAAAAAAAAAAA
222222222211111111111111111111AAAAAAAAAAAAAAAAAAAAAAAAAAAAAAAAAA
22222222211111111111111111111AAAAAAAAAAAAAAAAAAAAAAAAAAAAAAAAAAA
2222222211111111111111111111AAAAAAAAAAAAAAAAAAAAAAAAAAAAAAAAAAAA
222222211111111111111111111AAAAAAAAAAAAAAAAAAAAAAAAAAAAAAAAAAAAA
22222211111111111111111111AAAAAAAAAAAAAAAAAAAAAAAAAAAAAAAAAAAAAA
2222211111111111111111111AAAAAAAAAAAAAAAAAAAAAAAAAAAAAAAAAAAAAAA
222211111111111111111111AAAAAAAAAAAAAAAAAAAAAAAAAAAAAAAAAAAAAAAA
22211111111111111111111AAAAAAAAAAAAAAAAAAAAAAAAAAAAAAAAAAAAAAAAA
2211111111111111111111AAAAAAAAAAAAAAAAAAAAAAAAAAAAAAAAAAAAAAAAAA
211111111111111111111AAAAAAAAAAAAAAAAAAAAAAAAAAAAAAAAAAAAAAAAAAA
11111111111111111111AAAAAAAAAAAAAAAAAAAAAAAAAAAAAAAAAAAAAAAAAAAA
1111111111111111111AAAAAAAAAAAAAAAAAAAAAAAAAAAAAAAAAAAAAAAAAAAAA
111111111111111111AAAAAAAAAAAAAAAAAAAAAAAAAAAAAAAAAAAAAAAAAAAAAA
11111111111111111AAAAAAAAAAAAAAAAAAAAAAAAAAAAAAAAAAAAAAAAAAAAAAA
1111111111111111AAAAAAAAAAAAAAAAAAAAAAAAAAAAAAAAAAAAAAAAAAAAAAAA
111111111111111AAAAAAAAAAAAAAAAAAAAAAAAAAAAAAAAAAAAAAAAAAAAAAAAA
11111111111111AAAAAAAAAAAAAAAAAAAAAAAAAAAAAAAAAAAAAAAAAAAAAAAAAA
1111111111111AAAAAAAAAAAAAAAAAAAAAAAAAAAAAAAAAAAAAAAAAAAAAAAAAAA
111111111111AAAAAAAAAAAAAAAAAAAAAAAAAAAAAAAAAAAAAAAAAAAAAAAAAAAA
11111111111AAAAAAAAAAAAAAAAAAAAAAAAAAAAAAAAAAAAAAAAAAAAAAAAAAAAA
1111111111AAAAAAAAAAAAAAAAAAAAAAAAAAAAAAAAAAAAAAAAAAAAAAAAAAAAAA
111111111AAAAAAAAAAAAAAAAAAAAAAAAAAAAAAAAAAAAAAAAAAAAAAAAAAAAAAA
11111111AAAAAAAAAAAAAAAAAAAAAAAAAAAAAAAAAAAAAAAAAAAAAAAAAAAAAAAA
1111111AAAAAAAAAAAAAAAAAAAAAAAAAAAAAAAAAAAAAAAAAAAAAAAAAAAAAAAAA
111111AAAAAAAAAAAAAAAAAAAAAAAAAAAAAAAAAAAAAAAAAAAAAAAAAAAAAAAAAA
11111AAAAAAAAAAAAAAAAAAAAAAAAAAAAAAAAAAAAAAAAAAAAAAAAAAAAAAAAAAA
1111AAAAAAAAAAAAAAAAAAAAAAAAAAAAAAAAAAAAAAAAAAAAAAAAAAAAAAAAAAAA
111AAAAAAAAAAAAAAAAAAAAAAAAAAAAAAAAAAAAAAAAAAAAAAAAAAAAAAAAAAAAA
11AAAAAAAAAAAAAAAAAAAAAAAAAAAAAAAAAAAAAAAAAAAAAAAAAAAAAAAAAAAAAA
1AAAAAAAAAAAAAAAAAAAAAAAAAAAAAAAAAAAAAAAAAAAAAAAAAAAAAAAAAAAAAAA
AAAAAAAAAAAAAAAAAAAAAAAAAAAAAAAAAAAAAAAAAAAAAAAAAAAAAAAAAAAAAAAA
IIIIIIIIIIIIIIIIIIIIIIIIIIIIIIIIIIIIIIIIIIIIIIIIIIIIIIIII2II1IIA
IIIIIIIIIIIIIIIIIIIIIIIIIIIIIIIIIIIIIIIIIIIIIIIIIIIIIIII22I11IAA
IIIIIIIIIIIIIIIIIIIIIIIIIIIIIIIIIIIIIIIIIIIIIIIIIIIIIII222111AAA
IIIIIIIIIIIIIIIIIIIIIIIIIIIIIIIIIIIIIIIIIIIIIIIIIIIIII222111AAAA
IIIIIIIIIIIIIIIIIIIIIIIIIIIIIIIIIIIIIIIIIIIIIIIIIIIII222111AAAAA
IIIIIIIIIIIIIIIIIIIIIIIIIIIIIIIIIIIIIIIIIIIIIIIIIIII222111AAAAAA
IIIIIIIIIIIIIIIIIIIIIIIIIIIIIIIIIIIIIIIIIIIIIIIIIII222111AAAAAAA
IIIIIIIIIIIIIIIIIIIIIIIIIIIIIIIIIIIIIIIIIIIIIIIIII222111AAAAAAAA
IIIIIIIIIIIIIIIIIIIIIIIIIIIIIIIIIIIIIIIIIIIIIIIII222111AAAAAAAAA
IIIIIIIIIIIIIIIIIIIIIIIIIIIIIIIIIIIIIIIIIIIIIIII222111AAAAAAAAAA
IIIIIIIIIIIIIIIIIIIIIIIIIIIIIIIIIIIIIIIIIIIIIII222111AAAAAAAAAAA
IIIIIIIIIIIIIIIIIIIIIIIIIIIIIIIIIIIIIIIIIIIIII222111AAAAAAAAAAAA
IIIIIIIIIIIIIIIIIIIIIIIIIIIIIIIIIIIIIIIIIIIII222111AAAAAAAAAAAAA
IIIIIIIIIIIIIIIIIIIIIIIIIIIIIIIIIIIIIIIIIIII222111AAAAAAAAAAAAAA
IIIIIIIIIIIIIIIIIIIIIIIIIIIIIIIIIIIIIIIIIII222111AAAAAAAAAAAAAAA
IIIIIIIIIIIIIIIIIIIIIIIIIIIIIIIIIIIIIIIIII222111AAAAAAAAAAAAAAAA
IIIIIIIIIIIIIIIIIIIIIIIIIIIIIIIIIIIIIIIII222111AAAAAAAAAAAAAAAAA
IIIIIIIIIIIIIIIIIIIIIIIIIIIIIIIIIIIIIIII222111AAAAAAAAAAAAAAAAAA
IIIIIIIIIIIIIIIIIIIIIIIIIIIIIIIIIIIIIII222111AAAAAAAAAAAAAAAAAAA
IIIIIIIIIIIIIIIIIIIIIIIIIIIIIIIIIIIIII222111AAAAAAAAAAAAAAAAAAAA
IIIIIIIIIIIIIIIIIIIIIIIIIIIIIIIIIIIII222111AAAAAAAAAAAAAAAAAAAAA
IIIIIIIIIIIIIIIIIIIIIIIIIIIIIIIIIIII222111AAAAAAAAAAAAAAAAAAAAAA
IIIIIIIIIIIIIIIIIIIIIIIIIIIIIIIIIII222111AAAAAAAAAAAAAAAAAAAAAAA
IIIIIIIIIIIIIIIIIIIIIIIIIIIIIIIIII222111AAAAAAAAAAAAAAAAAAAAAAAA
IIIIIIIIIIIIIIIIIIIIIIIIIIIIIIIII222111AAAAAAAAAAAAAAAAAAAAAAAAA
IIIIIIIIIIIIIIIIIIIIIIIIIIIIIIII222111AAAAAAAAAAAAAAAAAAAAAAAAAA
IIIIIIIIIIIIIIIIIIIIIIIIIIIIIII222111AAAAAAAAAAAAAAAAAAAAAAAAAAA
IIIIIIIIIIIIIIIIIIIIIIIIIIIIII222111AAAAAAAAAAAAAAAAAAAAAAAAAAAA
IIIIIIIIIIIIIIIIIIIIIIIIIIIII222111AAAAAAAAAAAAAAAAAAAAAAAAAAAAA
IIIIIIIIIIIIIIIIIIIIIIIIIIII222111AAAAAAAAAAAAAAAAAAAAAAAAAAAAAA
IIIIIIIIIIIIIIIIIIIIIIIIIII222111AAAAAAAAAAAAAAAAAAAAAAAAAAAAAAA
IIIIIIIIIIIIIIIIIIIIIIIIII222111AAAAAAAAAAAAAAAAAAAAAAAAAAAAAAAA
IIIIIIIIIIIIIIIIIIIIIIIII222111AAAAAAAAAAAAAAAAAAAAAAAAAAAAAAAAA
IIIIIIIIIIIIIIIIIIIIIIII222111AAAAAAAAAAAAAAAAAAAAAAAAAAAAAAAAAA
IIIIIIIIIIIIIIIIIIIIIII222111AAAAAAAAAAAAAAAAAAAAAAAAAAAAAAAAAAA
IIIIIIIIIIIIIIIIIIIIII222111AAAAAAAAAAAAAAAAAAAAAAAAAAAAAAAAAAAA
IIIIIIIIIIIIIIIIIIIII222111AAAAAAAAAAAAAAAAAAAAAAAAAAAAAAAAAAAAA
IIIIIIIIIIIIIIIIIIII222111AAAAAAAAAAAAAAAAAAAAAAAAAAAAAAAAAAAAAA
IIIIIIIIIIIIIIIIIII222111AAAAAAAAAAAAAAAAAAAAAAAAAAAAAAAAAAAAAAA
IIIIIIIIIIIIIIIIII222111AAAAAAAAAAAAAAAAAAAAAAAAAAAAAAAAAAAAAAAA
IIIIIIIIIIIIIIIII222111AAAAAAAAAAAAAAAAAAAAAAAAAAAAAAAAAAAAAAAAA
IIIIIIIIIIIIIIII222111AAAAAAAAAAAAAAAAAAAAAAAAAAAAAAAAAAAAAAAAAA
IIIIIIIIIIIIIII222111AAAAAAAAAAAAAAAAAAAAAAAAAAAAAAAAAAAAAAAAAAA
IIIIIIIIIIIIII222111AAAAAAAAAAAAAAAAAAAAAAAAAAAAAAAAAAAAAAAAAAAA
IIIIIIIIIIIII222111AAAAAAAAAAAAAAAAAAAAAAAAAAAAAAAAAAAAAAAAAAAAA
IIIIIIIIIIII222111AAAAAAAAAAAAAAAAAAAAAAAAAAAAAAAAAAAAAAAAAAAAAA
IIIIIIIIIII222111AAAAAAAAAAAAAAAAAAAAAAAAAAAAAAAAAAAAAAAAAAAAAAA
IIIIIIIIII222111AAAAAAAAAAAAAAAAAAAAAAAAAAAAAAAAAAAAAAAAAAAAAAAA
IIIIIIIII222111AAAAAAAAAAAAAAAAAAAAAAAAAAAAAAAAAAAAAAAAAAAAAAAAA
IIIIIIII222111AAAAAAAAAAAAAAAAAAAAAAAAAAAAAAAAAAAAAAAAAAAAAAAAAA
IIIIIII222111AAAAAAAAAAAAAAAAAAAAAAAAAAAAAAAAAAAAAAAAAAAAAAAAAAA
IIIIII222111AAAAAAAAAAAAAAAAAAAAAAAAAAAAAAAAAAAAAAAAAAAAAAAAAAAA
IIIII222111AAAAAAAAAAAAAAAAAAAAAAAAAAAAAAAAAAAAAAAAAAAAAAAAAAAAA
IIII222111AAAAAAAAAAAAAAAAAAAAAAAAAAAAAAAAAAAAAAAAAAAAAAAAAAAAAA
III222111AAAAAAAAAAAAAAAAAAAAAAAAAAAAAAAAAAAAAAAAAAAAAAAAAAAAAAA
II222111AAAAAAAAAAAAAAAAAAAAAAAAAAAAAAAAAAAAAAAAAAAAAAAAAAAAAAAA
I222111AAAAAAAAAAAAAAAAAAAAAAAAAAAAAAAAAAAAAAAAAAAAAAAAAAAAAAAAA
222111AAAAAAAAAAAAAAAAAAAAAAAAAAAAAAAAAAAAAAAAAAAAAAAAAAAAAAAAAA
22111AAAAAAAAAAAAAAAAAAAAAAAAAAAAAAAAAAAAAAAAAAAAAAAAAAAAAAAAAAA
2211AAAAAAAAAAAAAAAAAAAAAAAAAAAAAAAAAAAAAAAAAAAAAAAAAAAAAAAAAAAA
2111AAAAAAAAAAAAAAAAAAAAAAAAAAAAAAAAAAAAAAAAAAAAAAAAAAAAAAAAAAAA
111AAAAAAAAAAAAAAAAAAAAAAAAAAAAAAAAAAAAAAAAAAAAAAAAAAAAAAAAAAAAA
11AAAAAAAAAAAAAAAAAAAAAAAAAAAAAAAAAAAAAAAAAAAAAAAAAAAAAAAAAAAAAA
1AAAAAAAAAAAAAAAAAAAAAAAAAAAAAAAAAAAAAAAAAAAAAAAAAAAAAAAAAAAAAAA
AAAAAAAAAAAAAAAAAAAAAAAAAAAAAAAAAAAAAAAAAAAAAAAAAAAAAAAAAAAAAAAA
IIIIIIIIIIIIIIIIIIIIIIIIIIIIIIIIIIIIIIIIIIIIIIIIIIIIIIIIIIIIIIIA
IIIIIIIIIIIIIIIIIIIIIIIIIIIIIIIIIIIIIIIIIIIII1IIIIII1IIIIIIIIIAA
IIIIIIIIIIIIIIIIIIIIIIIIIIIIIIII2II2IIIIII1II1IIIIII1IIIIIIIIIAA
IIIIIIIIIIIIIIIIIIIIIIIIIIIIIII22I22IIIII11I11IIIII11IIIIIIIIAAA
IIIIIIIIIIIIIIIIIIIIIIIIIIIIII222222IIII111111IIII111IIIIIIIAAAA
IIIIIIIIIIIIIIIIIIIIIIIIIIIIII222222IIII111111IIII111IIIIIIAAAAA
IIIIIIIIIIIIIIIIIIIIIIIIIIIII2222222III1111111III1111IIIIIIAAAAA
IIIIIIIIIIIIIIIIIIIIIIIIIIII22222222II11111111II11111IIIIIAAAAAA
IIIIIIIIIIIIIIIIIIIIIIIIIII222222222I111111111I111111IIIIAAAAAAA
IIIIIIIIIIIIIIIIIIIIIIIIIII22222222211111111111111111IIIAAAAAAAA
IIIIIIIIIIIIIIIIIIIIIIIIII222222222211111111111111111IIIAAAAAAAA
IIIIIIIIIIIIIIIIIIIIIIIII2222222222111111111111111111IIAAAAAAAAA
IIIIIIIIIIIIIIIIIIIIIIII22222222221111111111111111111IAAAAAAAAAA
IIIIIIIIIIIIIIIIIIIIIII222222222211111111111111111111AAAAAAAAAAA
IIIIIIIIIIIIIIIIIIIIII222222222211111111111111111111AAAAAAAAAAAA
IIIIIIIIIIIIIIIIIIIII222222222211111111111111111111AAAAAAAAAAAAA
IIIIIIIIIIIIIIIIIIII222222222211111111111111111111AAAAAAAAAAAAAA
IIIIIIIIIIIIIIIIIII222222222211111111111111111111AAAAAAAAAAAAAAA
IIIIIIIIIIIIIIIIII222222222211111111111111111111AAAAAAAAAAAAAAAA
IIIIIIIIIIIIIIIII222222222211111111111111111111AAAAAAAAAAAAAAAAA
IIIIIIIIIIIIIIII222222222211111111111111111111AAAAAAAAAAAAAAAAAA
IIIIIIIIIIIIIII222222222211111111111111111111AAAAAAAAAAAAAAAAAAA
IIIIIIIIIIIIIII22222222221111111111111111111AAAAAAAAAAAAAAAAAAAA
IIIIIIIIIIIIIII2222222222111111111111111111AAAAAAAAAAAAAAAAAAAAA
IIIIIIIIIIIII2I2222222212111111111111111111AAAAAAAAAAAAAAAAAAAAA
IIIIIIIIIIII22I222222211211111111111111111AAAAAAAAAAAAAAAAAAAAAA
IIIIIIIIIII222222222211111111111111111111AAAAAAAAAAAAAAAAAAAAAAA
IIIIIIIIII222222222211111111111111111111AAAAAAAAAAAAAAAAAAAAAAAA
IIIIIIIIII22222222221111111111111111111AAAAAAAAAAAAAAAAAAAAAAAAA
IIIIIIIII222222222211111111111111111111AAAAAAAAAAAAAAAAAAAAAAAAA
IIIIIIII222222222211111111111111111111AAAAAAAAAAAAAAAAAAAAAAAAAA
IIIIIII222222222211111111111111111111AAAAAAAAAAAAAAAAAAAAAAAAAAA
IIIIII222222222211111111111111111111AAAAAAAAAAAAAAAAAAAAAAAAAAAA
IIIIII22222222221111111111111111111AAAAAAAAAAAAAAAAAAAAAAAAAAAAA
IIIIII22222222211111111111111111111AAAAAAAAAAAAAAAAAAAAAAAAAAAAA
IIIII222222222211111111111111111111AAAAAAAAAAAAAAAAAAAAAAAAAAAAA
IIII222222222211111111111111111111AAAAAAAAAAAAAAAAAAAAAAAAAAAAAA
III222222222211111111111111111111AAAAAAAAAAAAAAAAAAAAAAAAAAAAAAA
II222222222211111111111111111111AAAAAAAAAAAAAAAAAAAAAAAAAAAAAAAA
I222222222211111111111111111111AAAAAAAAAAAAAAAAAAAAAAAAAAAAAAAAA
I22222222221111111111111111111AAAAAAAAAAAAAAAAAAAAAAAAAAAAAAAAAA
I22222222211111111111111111111AAAAAAAAAAAAAAAAAAAAAAAAAAAAAAAAAA
I2222222221111111111111111111AAAAAAAAAAAAAAAAAAAAAAAAAAAAAAAAAAA
I2222222211111111111111111111AAAAAAAAAAAAAAAAAAAAAAAAAAAAAAAAAAA
I222222211111111111111111111AAAAAAAAAAAAAAAAAAAAAAAAAAAAAAAAAAAA
222222211111111111111111111AAAAAAAAAAAAAAAAAAAAAAAAAAAAAAAAAAAAA
22222211111111111111111111AAAAAAAAAAAAAAAAAAAAAAAAAAAAAAAAAAAAAA
2222211111111111111111111AAAAAAAAAAAAAAAAAAAAAAAAAAAAAAAAAAAAAAA
222211111111111111111111AAAAAAAAAAAAAAAAAAAAAAAAAAAAAAAAAAAAAAAA
22211111111111111111111AAAAAAAAAAAAAAAAAAAAAAAAAAAAAAAAAAAAAAAAA
2221111111111111111111AAAAAAAAAAAAAAAAAAAAAAAAAAAAAAAAAAAAAAAAAA
2211111111111111111111AAAAAAAAAAAAAAAAAAAAAAAAAAAAAAAAAAAAAAAAAA
211111111111111111111AAAAAAAAAAAAAAAAAAAAAAAAAAAAAAAAAAAAAAAAAAA
21111111111111111111AAAAAAAAAAAAAAAAAAAAAAAAAAAAAAAAAAAAAAAAAAAA
11111111111111111111AAAAAAAAAAAAAAAAAAAAAAAAAAAAAAAAAAAAAAAAAAAA
1111111111111111111AAAAAAAAAAAAAAAAAAAAAAAAAAAAAAAAAAAAAAAAAAAAA
111111111111111111AAAAAAAAAAAAAAAAAAAAAAAAAAAAAAAAAAAAAAAAAAAAAA
11111111111111111AAAAAAAAAAAAAAAAAAAAAAAAAAAAAAAAAAAAAAAAAAAAAAA
1111111111111111AAAAAAAAAAAAAAAAAAAAAAAAAAAAAAAAAAAAAAAAAAAAAAAA
111111111111111AAAAAAAAAAAAAAAAAAAAAAAAAAAAAAAAAAAAAAAAAAAAAAAAA
11111111111111AAAAAAAAAAAAAAAAAAAAAAAAAAAAAAAAAAAAAAAAAAAAAAAAAA
1111111111111AAAAAAAAAAAAAAAAAAAAAAAAAAAAAAAAAAAAAAAAAAAAAAAAAAA
111111111111AAAAAAAAAAAAAAAAAAAAAAAAAAAAAAAAAAAAAAAAAAAAAAAAAAAA
11111111111AAAAAAAAAAAAAAAAAAAAAAAAAAAAAAAAAAAAAAAAAAAAAAAAAAAAA
1111111111AAAAAAAAAAAAAAAAAAAAAAAAAAAAAAAAAAAAAAAAAAAAAAAAAAAAAA
111111111AAAAAAAAAAAAAAAAAAAAAAAAAAAAAAAAAAAAAAAAAAAAAAAAAAAAAAA
11111111AAAAAAAAAAAAAAAAAAAAAAAAAAAAAAAAAAAAAAAAAAAAAAAAAAAAAAAA
1111111AAAAAAAAAAAAAAAAAAAAAAAAAAAAAAAAAAAAAAAAAAAAAAAAAAAAAAAAA
111111AAAAAAAAAAAAAAAAAAAAAAAAAAAAAAAAAAAAAAAAAAAAAAAAAAAAAAAAAA
11111AAAAAAAAAAAAAAAAAAAAAAAAAAAAAAAAAAAAAAAAAAAAAAAAAAAAAAAAAAA
1111AAAAAAAAAAAAAAAAAAAAAAAAAAAAAAAAAAAAAAAAAAAAAAAAAAAAAAAAAAAA
111AAAAAAAAAAAAAAAAAAAAAAAAAAAAAAAAAAAAAAAAAAAAAAAAAAAAAAAAAAAAA
11AAAAAAAAAAAAAAAAAAAAAAAAAAAAAAAAAAAAAAAAAAAAAAAAAAAAAAAAAAAAAA
1AAAAAAAAAAAAAAAAAAAAAAAAAAAAAAAAAAAAAAAAAAAAAAAAAAAAAAAAAAAAAAA
AAAAAAAAAAAAAAAAAAAAAAAAAAAAAAAAAAAAAAAAAAAAAAAAAAAAAAAAAAAAAAAA
[MLOP] Prefetch Degree Mean: 4.00926
[MLOP] Prefetch Degree SD: 1.7826
[MLOP] Max Score Left Mean (%): 23.5464
[MLOP] Max Score Left SD (%): 11.9129
[MLOP] Max Score Right Mean (%): 65.2649
[MLOP] Max Score Right SD (%): 10.0567

DRAM Statistics
 CHANNEL 0
 RQ ROW_BUFFER_HIT:    7446734  ROW_BUFFER_MISS:    2026348
 DBUS_CONGESTED:       6183
 WQ ROW_BUFFER_HIT:      49864  ROW_BUFFER_MISS:     141672  FULL:          0

 AVG_CONGESTED_CYCLE: 5
 All warmup complete: 2
Channel 0 Bank busy for read cycles: 0
Channel 0 Bank busy for write cycles: 0
Channel 0
Rank 0
0banks busy for read cycles: 7486192
0banks busy for write cycles: 3097
1banks busy for read cycles: 20276213
1banks busy for write cycles: 1629765
2banks busy for read cycles: 20587197
2banks busy for write cycles: 991051
3banks busy for read cycles: 19865357
3banks busy for write cycles: 761271
4banks busy for read cycles: 20144516
4banks busy for write cycles: 618626
5banks busy for read cycles: 20904544
5banks busy for write cycles: 615844
6banks busy for read cycles: 20114597
6banks busy for write cycles: 689379
7banks busy for read cycles: 17772589
7banks busy for write cycles: 1086266
8banks busy for read cycles: 15685330
8banks busy for write cycles: 9616235

CPU 0 Branch Prediction Accuracy: 97.6795% MPKI: 4.20592 Average ROB Occupancy at Mispredict: 49.1872
Branch types
NOT_BRANCH: 40937319 81.8746%
BRANCH_DIRECT_JUMP: 2039127 4.07825%
BRANCH_INDIRECT: 0 0%
BRANCH_CONDITIONAL: 7022764 14.0455%
BRANCH_DIRECT_CALL: 392 0.000784%
BRANCH_INDIRECT_CALL: 0 0%
BRANCH_RETURN: 392 0.000784%
BRANCH_OTHER: 0 0%

DRAM PAGES: 1048576
Allocated PAGES: 9879
