Initialize SIGNATURE TABLE
ST_SET: 1
ST_WAY: 256
ST_TAG_BIT: 16
ST_TAG_MASK: ffff

Initialize PATTERN TABLE
PT_SET: 512
PT_WAY: 4
SIG_DELTA_BIT: 7
C_SIG_BIT: 4
C_DELTA_BIT: 4

Initialize PREFETCH FILTER
FILTER_SET: 1024

*** ChampSim Multicore Out-of-Order Simulator ***

Warmup Instructions: 50000000
Simulation Instructions: 50000000
Number of CPUs: 1
LLC sets: 2048
LLC ways: 16
Off-chip DRAM Size: 4096 MB Channels: 1 Width: 64-bit Data Rate: 6400 MT/s
CPU 0 runs ./tracer/traces/623.xalancbmk_s-10B.champsimtrace.xz
.xz
CPU 0 Bimodal branch predictor
BTB has LRU replacement policy
ITLB has LRU replacement policy
DTLB has LRU replacement policy
STLB has LRU replacement policy
L1I has LRU replacement policy
CPU 0 L1D Berti prefetcher
L1D has LRU replacement policy
ST_WAYS: 256
PT_SETS: 512
Initialize SRRIP state for L2C
Heartbeat CPU 0 instructions: 10000003 cycles: 3089923 heartbeat IPC: 3.23633 cumulative IPC: 3.23633 (Simulation time: 0 hr 1 min 18 sec) 
Heartbeat CPU 0 instructions: 20000000 cycles: 6154676 heartbeat IPC: 3.2629 cumulative IPC: 3.24956 (Simulation time: 0 hr 2 min 10 sec) 
Heartbeat CPU 0 instructions: 30000001 cycles: 9231896 heartbeat IPC: 3.24969 cumulative IPC: 3.2496 (Simulation time: 0 hr 3 min 0 sec) 
Heartbeat CPU 0 instructions: 40000003 cycles: 12317212 heartbeat IPC: 3.24116 cumulative IPC: 3.24749 (Simulation time: 0 hr 4 min 16 sec) 
Heartbeat CPU 0 instructions: 50000003 cycles: 15416910 heartbeat IPC: 3.22612 cumulative IPC: 3.24319 (Simulation time: 0 hr 5 min 54 sec) 

Warmup complete CPU 0 instructions: 50000003 cycles: 15416910 (Simulation time: 0 hr 5 min 54 sec) 

Heartbeat CPU 0 instructions: 60000001 cycles: 45774133 heartbeat IPC: 0.329411 cumulative IPC: 0.329411 (Simulation time: 0 hr 8 min 20 sec) 
Heartbeat CPU 0 instructions: 70000000 cycles: 76174841 heartbeat IPC: 0.32894 cumulative IPC: 0.329175 (Simulation time: 0 hr 9 min 56 sec) 
Heartbeat CPU 0 instructions: 80000002 cycles: 106829505 heartbeat IPC: 0.326215 cumulative IPC: 0.328182 (Simulation time: 0 hr 11 min 29 sec) 
Heartbeat CPU 0 instructions: 90000000 cycles: 136665977 heartbeat IPC: 0.33516 cumulative IPC: 0.329899 (Simulation time: 0 hr 13 min 0 sec) 
Heartbeat CPU 0 instructions: 100000003 cycles: 167450387 heartbeat IPC: 0.32484 cumulative IPC: 0.328875 (Simulation time: 0 hr 14 min 30 sec) 
Finished CPU 0 instructions: 50000000 cycles: 152033477 cumulative IPC: 0.328875 (Simulation time: 0 hr 14 min 30 sec) 

ChampSim completed all CPUs

Region of Interest Statistics

CPU 0 cumulative IPC: 0.328875 instructions: 50000000 cycles: 152033477
ITLB TOTAL     ACCESS:    7794568  HIT:    7760659  MISS:      33909  HIT %:     99.565  MISS %:   0.435034   MPKI: 0.67818
ITLB LOAD TRANSLATION ACCESS:    7794568  HIT:    7760659  MISS:      33909  HIT %:     99.565  MISS %:   0.435034   MPKI: 0.67818
ITLB PREFETCH  REQUESTED:          0  ISSUED:          0  USEFUL:          0  USELESS:          0
ITLB USEFUL LOAD PREFETCHES:          0 PREFETCH ISSUED TO LOWER LEVEL:          0  ACCURACY: -nan
ITLB TIMELY PREFETCHES:          0 LATE PREFETCHES: 0 DROPPED PREFETCHES: 0
ITLB PREFETCHES SAME FILL-ORIGIN LEVEL: 0 DIFFERENT FILL-ORIGIN LEVEL: 0
ITLB AVERAGE MISS LATENCY: 13.4912 cycles
ITLB RQ	ACCESS:    8958390	FORWARD:          0	MERGED:    1155647	TO_CACHE:    7802743

DTLB TOTAL     ACCESS:   10400001  HIT:   10062695  MISS:     337306  HIT %:    96.7567  MISS %:    3.24333   MPKI: 6.74612
DTLB LOAD TRANSLATION ACCESS:   10400001  HIT:   10062695  MISS:     337306  HIT %:    96.7567  MISS %:    3.24333   MPKI: 6.74612
DTLB PREFETCH  REQUESTED:          0  ISSUED:          0  USEFUL:          0  USELESS:          0
DTLB USEFUL LOAD PREFETCHES:          0 PREFETCH ISSUED TO LOWER LEVEL:          0  ACCURACY: -nan
DTLB TIMELY PREFETCHES:          0 LATE PREFETCHES: 0 DROPPED PREFETCHES: 0
DTLB PREFETCHES SAME FILL-ORIGIN LEVEL: 0 DIFFERENT FILL-ORIGIN LEVEL: 0
DTLB AVERAGE MISS LATENCY: 15.7414 cycles
DTLB RQ	ACCESS:   11481370	FORWARD:          0	MERGED:    1053083	TO_CACHE:   10428287

STLB TOTAL     ACCESS:    6078531  HIT:    5821497  MISS:     257034  HIT %:    95.7714  MISS %:    4.22855   MPKI: 5.14068
STLB LOAD TRANSLATION ACCESS:     371215  HIT:     288308  MISS:      82907  HIT %:     77.666  MISS %:     22.334   MPKI: 1.65814
STLB TRANSLATION FROM L1D PREFETCHER ACCESS:    5707316  HIT:    5533189  MISS:     174127  HIT %:    96.9491  MISS %:    3.05094   MPKI: 3.48254
STLB PREFETCH  REQUESTED:          0  ISSUED:          0  USEFUL:     172410  USELESS:       1716
STLB USEFUL LOAD PREFETCHES:     172410 PREFETCH ISSUED TO LOWER LEVEL:          0  ACCURACY: inf
STLB TIMELY PREFETCHES:     172410 LATE PREFETCHES: 129 DROPPED PREFETCHES: 27310
STLB PREFETCHES SAME FILL-ORIGIN LEVEL: 0 DIFFERENT FILL-ORIGIN LEVEL: 0
STLB AVERAGE MISS LATENCY: 702.78 cycles
STLB RQ	ACCESS:    6756343	FORWARD:          0	MERGED:     639230	TO_CACHE:    6117113

STLB Hit, L1D data hit: 0
STLB Hit, L2C data hit: 0
STLB Hit, LLC data hit: 0
STLB Hit, LLC data miss: 0
STLB STLB hints to L2: 0
L1D TOTAL     ACCESS:   17490061  HIT:   15101216  MISS:    2388845  HIT %:    86.3417  MISS %:    13.6583   MPKI: 47.7769
L1D LOAD      ACCESS:    9038896  HIT:    7989680  MISS:    1049216  HIT %:    88.3922  MISS %:    11.6078   MPKI: 20.9843
L1D RFO       ACCESS:    2342002  HIT:    2318919  MISS:      23083  HIT %:    99.0144  MISS %:    0.98561   MPKI: 0.46166
L1D PREFETCH  ACCESS:    6109163  HIT:    4792617  MISS:    1316546  HIT %:    78.4497  MISS %:    21.5503   MPKI: 26.3309
AGUS PREFETCH L1 MISS: 0
L1D PREFETCH  REQUESTED:   13318188  ISSUED:   13318188  USEFUL:     308716  USELESS:    1007834
L1D USEFUL LOAD PREFETCHES:     308716 PREFETCH ISSUED TO LOWER LEVEL:    1336442  ACCURACY: 23.0998
L1D TIMELY PREFETCHES:     308716 LATE PREFETCHES: 19865 DROPPED PREFETCHES: 30087
L1D PREFETCHES SAME FILL-ORIGIN LEVEL: 1336442 DIFFERENT FILL-ORIGIN LEVEL: 0
L1D AVERAGE MISS LATENCY: 753694 cycles
L1D RQ	ACCESS:   14681656	FORWARD:          0	MERGED:    5536104	TO_CACHE:    9085424
L1D WQ	ACCESS:    2425925	FORWARD:      60154	MERGED:      29979	TO_CACHE:    2395946
L1D PQ	ACCESS:    6933060	FORWARD:          0	MERGED:     547906	TO_CACHE:    6385128

L1D UNIQUE REGIONS ACCESSED: 0
L1D REGIONS CONFLICTS: 0
L1D Cross Page Prefetch Requests: 0
L1D Same Page Prefetch Requests: 13963711
L1D ROI Sum of L1D PQ occupancy: 103899656
L1D PREFETCHES PUSHED FROM L2C: 0
L1I TOTAL     ACCESS:    8909697  HIT:    8733670  MISS:     176027  HIT %:    98.0243  MISS %:    1.97568   MPKI: 3.52054
L1I LOAD      ACCESS:    8909697  HIT:    8733670  MISS:     176027  HIT %:    98.0243  MISS %:    1.97568   MPKI: 3.52054
L1I PREFETCH  REQUESTED:          0  ISSUED:          0  USEFUL:          0  USELESS:          0
L1I USEFUL LOAD PREFETCHES:          0 PREFETCH ISSUED TO LOWER LEVEL:          0  ACCURACY: -nan
L1I TIMELY PREFETCHES:          0 LATE PREFETCHES: 0 DROPPED PREFETCHES: 0
L1I PREFETCHES SAME FILL-ORIGIN LEVEL: 0 DIFFERENT FILL-ORIGIN LEVEL: 0
L1I AVERAGE MISS LATENCY: 25.9412 cycles
L1I RQ	ACCESS:   15131261	FORWARD:          0	MERGED:    6172871	TO_CACHE:    8958390

BTB TOTAL     ACCESS:    8240387  HIT:    8162325  MISS:      78062  HIT %:    99.0527  MISS %:    0.94731   MPKI: 1.56124
BTB BRANCH_DIRECT_JUMP	ACCESS:     125745  HIT:     125105  MISS:        640
BTB BRANCH_INDIRECT	ACCESS:      22046  HIT:       8847  MISS:      13199
BTB BRANCH_CONDITIONAL	ACCESS:    6916732  HIT:    6913884  MISS:       2848
BTB BRANCH_DIRECT_CALL	ACCESS:     323608  HIT:     322533  MISS:       1075
BTB BRANCH_INDIRECT_CALL	ACCESS:     264324  HIT:     261288  MISS:       3036
BTB BRANCH_RETURN	ACCESS:     587932  HIT:     530668  MISS:      57264
BTB BRANCH_OTHER ACCESS:           0  HIT:          0  MISS:          0

L2C TOTAL     ACCESS:    2931549  HIT:     646243  MISS:    2285306  HIT %:    22.0444  MISS %:    77.9556   MPKI: 45.7061
L2C LOAD      ACCESS:    1205373  HIT:     250876  MISS:     954497  HIT %:    20.8131  MISS %:    79.1869   MPKI: 19.0899
L2C DATA LOAD MPKI: 18.4175
L2C INSTRUCTION LOAD MPKI: 0.67242
L2C RFO       ACCESS:      23049  HIT:      10728  MISS:      12321  HIT %:    46.5443  MISS %:    53.4557   MPKI: 0.24642
L2C PREFETCH  ACCESS:    1370279  HIT:     113556  MISS:    1256723  HIT %:    8.28707  MISS %:    91.7129   MPKI: 25.1345
AGUS PREFETCH L1 MISS: 0
L2C DATA PREFETCH MPKI: 25.1345
L2C INSTRUCTION PREFETCH MPKI: 0
L2C WRITEBACK ACCESS:      47264  HIT:      46915  MISS:        349  HIT %:    99.2616  MISS %:   0.738406   MPKI: 0.00698
L2C LOAD TRANSLATION ACCESS:      83153  HIT:      73402  MISS:       9751  HIT %:    88.2734  MISS %:    11.7266   MPKI: 0.19502
L2C TRANSLATION FROM L1D PREFETCHER ACCESS:     202431  HIT:     150766  MISS:      51665  HIT %:    74.4777  MISS %:    25.5223   MPKI: 1.0333
L2C PREFETCH  REQUESTED:     314132  ISSUED:     314132  USEFUL:      71000  USELESS:    1237140
L2C USEFUL LOAD PREFETCHES:      71000 PREFETCH ISSUED TO LOWER LEVEL:    1479711  ACCURACY: 4.79823
L2C TIMELY PREFETCHES:      71000 LATE PREFETCHES: 0 DROPPED PREFETCHES: 0
L2C PREFETCHES SAME FILL-ORIGIN LEVEL: 558 DIFFERENT FILL-ORIGIN LEVEL: 222988
L2C AVERAGE MISS LATENCY: 109.361 cycles
L2C RQ	ACCESS:    1514014	FORWARD:          0	MERGED:          0	TO_CACHE:    1514006
L2C WQ	ACCESS:      47264	FORWARD:          8	MERGED:          0	TO_CACHE:      47264
L2C PQ	ACCESS:    1650574	FORWARD:          0	MERGED:      25643	TO_CACHE:    1624931

L2C Instructions Evicting Data 32323
L2C Translations Evicting Data 58772
L2C Data Evicting Data 2098848
L2C Instructions Evicting Instructions 541
L2C Translations Evicting Instructions 773
L2C Data Evicting Instructions 32305
L2C Instructions Evicting Translations 757
L2C Translations Evicting Translations 1871
L2C Data Evicting Translations 58767
L2C Dense regions hint from L2: 0
PSCL5 TOTAL     ACCESS:     284349  HIT:     284349  MISS:          0  HIT %:        100  MISS %:          0   MPKI: 0
PSCL5 LOAD TRANSLATION ACCESS:      82783  HIT:      82783  MISS:          0  HIT %:        100  MISS %:          0   MPKI: 0
PSCL5 TRANSLATION FROM L1D PREFETCHER ACCESS:     201566  HIT:     201566  MISS:          0  HIT %:        100  MISS %:          0   MPKI: 0
PSCL5 PREFETCH  REQUESTED:          0  ISSUED:          0  USEFUL:          0  USELESS:          0
PSCL5 USEFUL LOAD PREFETCHES:          0 PREFETCH ISSUED TO LOWER LEVEL:          0  ACCURACY: -nan
PSCL5 TIMELY PREFETCHES:          0 LATE PREFETCHES: 0 DROPPED PREFETCHES: 0
PSCL5 PREFETCHES SAME FILL-ORIGIN LEVEL: 0 DIFFERENT FILL-ORIGIN LEVEL: 0

PSCL4 TOTAL     ACCESS:     284349  HIT:     284349  MISS:          0  HIT %:        100  MISS %:          0   MPKI: 0
PSCL4 LOAD TRANSLATION ACCESS:      82783  HIT:      82783  MISS:          0  HIT %:        100  MISS %:          0   MPKI: 0
PSCL4 TRANSLATION FROM L1D PREFETCHER ACCESS:     201566  HIT:     201566  MISS:          0  HIT %:        100  MISS %:          0   MPKI: 0
PSCL4 PREFETCH  REQUESTED:          0  ISSUED:          0  USEFUL:          0  USELESS:          0
PSCL4 USEFUL LOAD PREFETCHES:          0 PREFETCH ISSUED TO LOWER LEVEL:          0  ACCURACY: -nan
PSCL4 TIMELY PREFETCHES:          0 LATE PREFETCHES: 0 DROPPED PREFETCHES: 0
PSCL4 PREFETCHES SAME FILL-ORIGIN LEVEL: 0 DIFFERENT FILL-ORIGIN LEVEL: 0

PSCL3 TOTAL     ACCESS:     284349  HIT:     284349  MISS:          0  HIT %:        100  MISS %:          0   MPKI: 0
PSCL3 LOAD TRANSLATION ACCESS:      82783  HIT:      82783  MISS:          0  HIT %:        100  MISS %:          0   MPKI: 0
PSCL3 TRANSLATION FROM L1D PREFETCHER ACCESS:     201566  HIT:     201566  MISS:          0  HIT %:        100  MISS %:          0   MPKI: 0
PSCL3 PREFETCH  REQUESTED:          0  ISSUED:          0  USEFUL:          0  USELESS:          0
PSCL3 USEFUL LOAD PREFETCHES:          0 PREFETCH ISSUED TO LOWER LEVEL:          0  ACCURACY: -nan
PSCL3 TIMELY PREFETCHES:          0 LATE PREFETCHES: 0 DROPPED PREFETCHES: 0
PSCL3 PREFETCHES SAME FILL-ORIGIN LEVEL: 0 DIFFERENT FILL-ORIGIN LEVEL: 0

PSCL2 TOTAL     ACCESS:     284316  HIT:     283114  MISS:       1202  HIT %:    99.5772  MISS %:   0.422769   MPKI: 0.02404
PSCL2 LOAD TRANSLATION ACCESS:      83615  HIT:      82413  MISS:       1202  HIT %:    98.5625  MISS %:    1.43754   MPKI: 0.02404
PSCL2 TRANSLATION FROM L1D PREFETCHER ACCESS:     200701  HIT:     200701  MISS:          0  HIT %:        100  MISS %:          0   MPKI: 0
PSCL2 PREFETCH  REQUESTED:          0  ISSUED:          0  USEFUL:          0  USELESS:          0
PSCL2 USEFUL LOAD PREFETCHES:          0 PREFETCH ISSUED TO LOWER LEVEL:          0  ACCURACY: -nan
PSCL2 TIMELY PREFETCHES:          0 LATE PREFETCHES: 0 DROPPED PREFETCHES: 0
PSCL2 PREFETCHES SAME FILL-ORIGIN LEVEL: 0 DIFFERENT FILL-ORIGIN LEVEL: 0

LLC TOTAL     ACCESS:    2492439  HIT:     828637  MISS:    1663802  HIT %:     33.246  MISS %:     66.754   MPKI: 33.276
LLC LOAD      ACCESS:     954497  HIT:     606515  MISS:     347982  HIT %:    63.5429  MISS %:    36.4571   MPKI: 6.95964
LLC RFO       ACCESS:      12321  HIT:       3428  MISS:       8893  HIT %:    27.8224  MISS %:    72.1776   MPKI: 0.17786
LLC PREFETCH  ACCESS:    1443920  HIT:     158541  MISS:    1285379  HIT %:    10.9799  MISS %:    89.0201   MPKI: 25.7076
AGUS PREFETCH L1 MISS: 0
LLC WRITEBACK ACCESS:      20285  HIT:      11477  MISS:       8808  HIT %:    56.5788  MISS %:    43.4212   MPKI: 0.17616
LLC LOAD TRANSLATION ACCESS:       9751  HIT:       7636  MISS:       2115  HIT %:    78.3099  MISS %:    21.6901   MPKI: 0.0423
LLC TRANSLATION FROM L1D PREFETCHER ACCESS:      51665  HIT:      41040  MISS:      10625  HIT %:    79.4348  MISS %:    20.5652   MPKI: 0.2125
LLC PREFETCH  REQUESTED:          0  ISSUED:          0  USEFUL:       5590  USELESS:      36561
LLC USEFUL LOAD PREFETCHES:       5590 PREFETCH ISSUED TO LOWER LEVEL:    1306675  ACCURACY: 0.427803
LLC TIMELY PREFETCHES:       5590 LATE PREFETCHES: 21296 DROPPED PREFETCHES: 0
LLC PREFETCHES SAME FILL-ORIGIN LEVEL: 171352 DIFFERENT FILL-ORIGIN LEVEL: 0
LLC AVERAGE MISS LATENCY: 120.153 cycles
LLC RQ	ACCESS:    1028234	FORWARD:          0	MERGED:          0	TO_CACHE:    1028234
LLC WQ	ACCESS:      20285	FORWARD:          0	MERGED:          0	TO_CACHE:      20285
LLC PQ	ACCESS:    1479711	FORWARD:          0	MERGED:       6291	TO_CACHE:    1473420

LLC Dense regions hint to LLC: 0

RAW hits: 60402
Loads Generated: 14742059
Loads sent to L1D: 14681656
Stores Generated: 2425919
Stores sent to L1D: 2425925
Major fault: 0 Minor fault: 11043
Allocated PAGES: 11043
CPU 0 L1D berti prefetcher final stats
0-> Hits: 60, Late: 0, Early: 0, Misses: 0
2-> Hits: 285, Late: 0, Early: 0, Misses: 0
4-> Hits: 11, Late: 0, Early: 0, Misses: 0
5-> Hits: 91, Late: 0, Early: 0, Misses: 0
7-> Hits: 45, Late: 310, Early: 0, Misses: 0
9-> Hits: 0, Late: 0, Early: 0, Misses: 3
a-> Hits: 145, Late: 0, Early: 0, Misses: 0
e-> Hits: 555, Late: 0, Early: 0, Misses: 0
12-> Hits: 2, Late: 0, Early: 0, Misses: 0
15-> Hits: 1, Late: 0, Early: 0, Misses: 0
17-> Hits: 282, Late: 0, Early: 0, Misses: 0
19-> Hits: 553, Late: 0, Early: 0, Misses: 0
1c-> Hits: 232, Late: 0, Early: 0, Misses: 0
1d-> Hits: 232, Late: 0, Early: 0, Misses: 0
1e-> Hits: 274, Late: 0, Early: 0, Misses: 0
1f-> Hits: 232, Late: 0, Early: 0, Misses: 0
20-> Hits: 300, Late: 0, Early: 0, Misses: 0
21-> Hits: 235, Late: 0, Early: 0, Misses: 0
23-> Hits: 232, Late: 0, Early: 0, Misses: 0
24-> Hits: 146, Late: 0, Early: 0, Misses: 0
25-> Hits: 447, Late: 0, Early: 0, Misses: 0
26-> Hits: 514, Late: 0, Early: 0, Misses: 0
29-> Hits: 9369, Late: 89, Early: 0, Misses: 0
2b-> Hits: 472, Late: 0, Early: 0, Misses: 0
2c-> Hits: 1152, Late: 0, Early: 0, Misses: 0
2f-> Hits: 233, Late: 0, Early: 0, Misses: 0
30-> Hits: 965, Late: 14, Early: 0, Misses: 0
32-> Hits: 49, Late: 0, Early: 0, Misses: 0
33-> Hits: 2402, Late: 919, Early: 0, Misses: 10
34-> Hits: 0, Late: 1, Early: 0, Misses: 0
35-> Hits: 1126, Late: 0, Early: 0, Misses: 0
36-> Hits: 2, Late: 0, Early: 0, Misses: 0
37-> Hits: 4022, Late: 1, Early: 0, Misses: 193
38-> Hits: 11541, Late: 0, Early: 0, Misses: 0
3a-> Hits: 12070, Late: 0, Early: 0, Misses: 0
3b-> Hits: 1, Late: 0, Early: 0, Misses: 0
3c-> Hits: 12489, Late: 0, Early: 0, Misses: 0
3d-> Hits: 282, Late: 0, Early: 0, Misses: 0
3e-> Hits: 19642, Late: 0, Early: 0, Misses: 0
40-> Hits: 18830, Late: 206, Early: 0, Misses: 0
41-> Hits: 20156, Late: 0, Early: 0, Misses: 0
42-> Hits: 2, Late: 0, Early: 0, Misses: 0
45-> Hits: 196, Late: 27, Early: 0, Misses: 1
48-> Hits: 306, Late: 0, Early: 0, Misses: 0
49-> Hits: 658, Late: 0, Early: 0, Misses: 0
4a-> Hits: 211, Late: 12, Early: 0, Misses: 1
4d-> Hits: 209, Late: 23, Early: 0, Misses: 0
4f-> Hits: 1, Late: 0, Early: 0, Misses: 0
50-> Hits: 1840, Late: 153, Early: 0, Misses: 14
52-> Hits: 282, Late: 0, Early: 0, Misses: 0
53-> Hits: 11, Late: 0, Early: 0, Misses: 0
54-> Hits: 168, Late: 196, Early: 0, Misses: 10
55-> Hits: 758, Late: 106, Early: 0, Misses: 0
58-> Hits: 21, Late: 0, Early: 0, Misses: 0
59-> Hits: 1063, Late: 38, Early: 0, Misses: 0
5b-> Hits: 293, Late: 0, Early: 0, Misses: 0
5e-> Hits: 1099, Late: 48, Early: 0, Misses: 0
61-> Hits: 44, Late: 172, Early: 0, Misses: 16
63-> Hits: 34443, Late: 3, Early: 0, Misses: 0
65-> Hits: 481, Late: 43, Early: 0, Misses: 2
67-> Hits: 11, Late: 0, Early: 0, Misses: 0
68-> Hits: 49, Late: 233, Early: 0, Misses: 0
69-> Hits: 116, Late: 0, Early: 0, Misses: 0
6d-> Hits: 923, Late: 0, Early: 0, Misses: 0
6e-> Hits: 30, Late: 190, Early: 0, Misses: 12
71-> Hits: 11331, Late: 5, Early: 0, Misses: 0
75-> Hits: 3, Late: 0, Early: 0, Misses: 0
78-> Hits: 923, Late: 0, Early: 0, Misses: 0
80-> Hits: 73, Late: 168, Early: 0, Misses: 138
81-> Hits: 49, Late: 0, Early: 0, Misses: 0
83-> Hits: 1623, Late: 0, Early: 0, Misses: 0
84-> Hits: 1126, Late: 0, Early: 0, Misses: 0
85-> Hits: 312, Late: 2, Early: 0, Misses: 1
86-> Hits: 1126, Late: 0, Early: 0, Misses: 0
88-> Hits: 1877, Late: 172, Early: 0, Misses: 0
8a-> Hits: 1679, Late: 77, Early: 0, Misses: 0
8b-> Hits: 1537, Late: 47, Early: 0, Misses: 8
8c-> Hits: 806, Late: 193, Early: 0, Misses: 12
8d-> Hits: 5020, Late: 0, Early: 0, Misses: 9
8e-> Hits: 8785, Late: 0, Early: 0, Misses: 41
8f-> Hits: 11106, Late: 3, Early: 0, Misses: 0
90-> Hits: 1456, Late: 14, Early: 0, Misses: 1
91-> Hits: 11377, Late: 0, Early: 0, Misses: 0
92-> Hits: 3, Late: 0, Early: 0, Misses: 0
93-> Hits: 10321, Late: 0, Early: 0, Misses: 0
94-> Hits: 376, Late: 0, Early: 0, Misses: 0
95-> Hits: 11116, Late: 0, Early: 0, Misses: 0
96-> Hits: 3, Late: 0, Early: 0, Misses: 0
97-> Hits: 11354, Late: 1, Early: 0, Misses: 6
99-> Hits: 1, Late: 0, Early: 0, Misses: 0
9a-> Hits: 920, Late: 3, Early: 0, Misses: 0
9b-> Hits: 44, Late: 122, Early: 0, Misses: 0
9d-> Hits: 282, Late: 0, Early: 0, Misses: 0
9f-> Hits: 0, Late: 3, Early: 0, Misses: 0
a0-> Hits: 305, Late: 158, Early: 0, Misses: 1
a1-> Hits: 137, Late: 141, Early: 0, Misses: 4
a3-> Hits: 592, Late: 0, Early: 0, Misses: 0
a4-> Hits: 1000, Late: 0, Early: 0, Misses: 0
a5-> Hits: 144, Late: 0, Early: 0, Misses: 0
a6-> Hits: 174, Late: 5, Early: 0, Misses: 2
a7-> Hits: 1066, Late: 572, Early: 0, Misses: 1
a9-> Hits: 1179, Late: 208, Early: 0, Misses: 0
aa-> Hits: 3, Late: 0, Early: 0, Misses: 0
ab-> Hits: 420, Late: 18, Early: 0, Misses: 0
ac-> Hits: 919, Late: 39, Early: 0, Misses: 0
ad-> Hits: 1304, Late: 33, Early: 0, Misses: 0
ae-> Hits: 1150, Late: 13, Early: 0, Misses: 0
af-> Hits: 232, Late: 0, Early: 0, Misses: 0
b0-> Hits: 4180, Late: 49, Early: 0, Misses: 0
b1-> Hits: 232, Late: 0, Early: 0, Misses: 0
b3-> Hits: 1140, Late: 15, Early: 0, Misses: 0
b4-> Hits: 489, Late: 1, Early: 0, Misses: 0
b7-> Hits: 5680, Late: 7, Early: 0, Misses: 7
b8-> Hits: 8, Late: 48, Early: 0, Misses: 0
b9-> Hits: 9984, Late: 527, Early: 0, Misses: 18
ba-> Hits: 325, Late: 0, Early: 0, Misses: 0
bb-> Hits: 7555, Late: 661, Early: 0, Misses: 1
bc-> Hits: 737, Late: 0, Early: 0, Misses: 0
bd-> Hits: 6467, Late: 950, Early: 0, Misses: 3
be-> Hits: 81, Late: 0, Early: 0, Misses: 0
c0-> Hits: 2696, Late: 0, Early: 0, Misses: 0
c1-> Hits: 574, Late: 0, Early: 0, Misses: 0
c2-> Hits: 72, Late: 1, Early: 0, Misses: 0
c4-> Hits: 508, Late: 0, Early: 0, Misses: 0
c8-> Hits: 1108, Late: 0, Early: 0, Misses: 0
c9-> Hits: 163, Late: 0, Early: 0, Misses: 0
ca-> Hits: 638, Late: 1, Early: 0, Misses: 0
cb-> Hits: 1120, Late: 0, Early: 0, Misses: 0
cd-> Hits: 1146, Late: 0, Early: 0, Misses: 0
ce-> Hits: 880, Late: 0, Early: 0, Misses: 0
cf-> Hits: 1146, Late: 0, Early: 0, Misses: 0
d0-> Hits: 10290, Late: 232, Early: 0, Misses: 3
d1-> Hits: 1244, Late: 0, Early: 0, Misses: 0
d2-> Hits: 1358, Late: 602, Early: 0, Misses: 0
d3-> Hits: 2015, Late: 11, Early: 0, Misses: 0
d4-> Hits: 279, Late: 0, Early: 0, Misses: 0
d5-> Hits: 7866, Late: 366, Early: 0, Misses: 1
d6-> Hits: 47, Late: 0, Early: 0, Misses: 0
d7-> Hits: 3853, Late: 325, Early: 0, Misses: 0
db-> Hits: 3040, Late: 0, Early: 0, Misses: 0
dc-> Hits: 1, Late: 0, Early: 0, Misses: 0
dd-> Hits: 9, Late: 0, Early: 0, Misses: 0
e0-> Hits: 691, Late: 0, Early: 0, Misses: 0
e4-> Hits: 11064, Late: 572, Early: 0, Misses: 1
e6-> Hits: 453, Late: 0, Early: 0, Misses: 0
e8-> Hits: 35, Late: 0, Early: 0, Misses: 0
e9-> Hits: 232, Late: 0, Early: 0, Misses: 0
ec-> Hits: 1108, Late: 0, Early: 0, Misses: 0
ed-> Hits: 872, Late: 0, Early: 0, Misses: 8
ef-> Hits: 3, Late: 0, Early: 0, Misses: 0
f0-> Hits: 1173, Late: 59, Early: 0, Misses: 0
f2-> Hits: 823, Late: 285, Early: 0, Misses: 0
f3-> Hits: 7, Late: 0, Early: 0, Misses: 0
f4-> Hits: 126, Late: 0, Early: 0, Misses: 0
f9-> Hits: 8750, Late: 223, Early: 0, Misses: 0
fa-> Hits: 0, Late: 0, Early: 0, Misses: 3
fb-> Hits: 1719, Late: 99, Early: 0, Misses: 0
fc-> Hits: 466, Late: 0, Early: 0, Misses: 0
fd-> Hits: 875, Late: 1, Early: 0, Misses: 4
fe-> Hits: 466, Late: 0, Early: 0, Misses: 0
100-> Hits: 466, Late: 0, Early: 0, Misses: 0
101-> Hits: 875, Late: 1, Early: 0, Misses: 7
102-> Hits: 2092, Late: 162, Early: 0, Misses: 0
103-> Hits: 35, Late: 0, Early: 0, Misses: 0
104-> Hits: 466, Late: 0, Early: 0, Misses: 0
105-> Hits: 466, Late: 0, Early: 0, Misses: 0
106-> Hits: 233, Late: 0, Early: 0, Misses: 0
10b-> Hits: 132, Late: 0, Early: 0, Misses: 0
10c-> Hits: 232, Late: 0, Early: 0, Misses: 0
10d-> Hits: 63, Late: 0, Early: 0, Misses: 0
10f-> Hits: 166, Late: 0, Early: 0, Misses: 3
110-> Hits: 827, Late: 0, Early: 0, Misses: 0
113-> Hits: 476, Late: 0, Early: 0, Misses: 0
115-> Hits: 10529, Late: 0, Early: 0, Misses: 0
116-> Hits: 29, Late: 0, Early: 0, Misses: 0
117-> Hits: 65, Late: 0, Early: 0, Misses: 0
11a-> Hits: 923, Late: 0, Early: 0, Misses: 0
11c-> Hits: 182, Late: 0, Early: 0, Misses: 0
11d-> Hits: 897, Late: 0, Early: 0, Misses: 0
120-> Hits: 282, Late: 0, Early: 0, Misses: 0
121-> Hits: 382, Late: 0, Early: 0, Misses: 0
122-> Hits: 280, Late: 0, Early: 0, Misses: 0
123-> Hits: 0, Late: 0, Early: 0, Misses: 1
126-> Hits: 22, Late: 0, Early: 0, Misses: 0
127-> Hits: 4, Late: 0, Early: 0, Misses: 0
129-> Hits: 10031, Late: 0, Early: 0, Misses: 0
12b-> Hits: 282, Late: 0, Early: 0, Misses: 0
12d-> Hits: 741, Late: 0, Early: 0, Misses: 0
12f-> Hits: 282, Late: 0, Early: 0, Misses: 0
130-> Hits: 1638, Late: 14, Early: 0, Misses: 0
131-> Hits: 4560, Late: 84, Early: 0, Misses: 7
134-> Hits: 3453, Late: 73, Early: 0, Misses: 0
135-> Hits: 819, Late: 0, Early: 0, Misses: 0
136-> Hits: 184, Late: 0, Early: 0, Misses: 0
137-> Hits: 1068, Late: 0, Early: 0, Misses: 0
138-> Hits: 186, Late: 0, Early: 0, Misses: 0
139-> Hits: 1108, Late: 0, Early: 0, Misses: 0
13f-> Hits: 194, Late: 0, Early: 0, Misses: 0
140-> Hits: 923, Late: 0, Early: 0, Misses: 0
141-> Hits: 280, Late: 0, Early: 0, Misses: 0
142-> Hits: 923, Late: 0, Early: 0, Misses: 0
144-> Hits: 925, Late: 0, Early: 0, Misses: 1
145-> Hits: 3, Late: 0, Early: 0, Misses: 0
146-> Hits: 926, Late: 0, Early: 0, Misses: 0
148-> Hits: 925, Late: 0, Early: 0, Misses: 1
149-> Hits: 923, Late: 0, Early: 0, Misses: 0
14a-> Hits: 3, Late: 0, Early: 0, Misses: 0
14c-> Hits: 264, Late: 0, Early: 0, Misses: 0
14d-> Hits: 6, Late: 0, Early: 0, Misses: 0
150-> Hits: 156, Late: 0, Early: 0, Misses: 0
152-> Hits: 10429, Late: 0, Early: 0, Misses: 0
153-> Hits: 10448, Late: 0, Early: 0, Misses: 0
154-> Hits: 10459, Late: 0, Early: 0, Misses: 0
156-> Hits: 1012, Late: 4, Early: 0, Misses: 0
158-> Hits: 1323, Late: 0, Early: 0, Misses: 0
15d-> Hits: 233, Late: 0, Early: 0, Misses: 0
15f-> Hits: 1108, Late: 0, Early: 0, Misses: 0
161-> Hits: 184, Late: 0, Early: 0, Misses: 0
163-> Hits: 1108, Late: 0, Early: 0, Misses: 0
164-> Hits: 3, Late: 0, Early: 0, Misses: 0
165-> Hits: 20, Late: 0, Early: 0, Misses: 0
169-> Hits: 6, Late: 0, Early: 0, Misses: 0
16a-> Hits: 233, Late: 0, Early: 0, Misses: 0
16b-> Hits: 226, Late: 0, Early: 0, Misses: 0
16d-> Hits: 1108, Late: 0, Early: 0, Misses: 0
16f-> Hits: 154, Late: 77, Early: 0, Misses: 2
172-> Hits: 19, Late: 0, Early: 0, Misses: 0
173-> Hits: 237, Late: 1, Early: 0, Misses: 0
176-> Hits: 287, Late: 0, Early: 0, Misses: 0
177-> Hits: 1, Late: 0, Early: 0, Misses: 0
178-> Hits: 362, Late: 66, Early: 0, Misses: 2
179-> Hits: 20, Late: 0, Early: 0, Misses: 0
17a-> Hits: 1388, Late: 0, Early: 0, Misses: 0
17c-> Hits: 3918, Late: 0, Early: 0, Misses: 0
17d-> Hits: 5767, Late: 0, Early: 0, Misses: 0
17f-> Hits: 6725, Late: 0, Early: 0, Misses: 0
181-> Hits: 1108, Late: 0, Early: 0, Misses: 0
182-> Hits: 137, Late: 87, Early: 0, Misses: 17
184-> Hits: 754, Late: 0, Early: 0, Misses: 0
185-> Hits: 1046, Late: 0, Early: 0, Misses: 0
186-> Hits: 112, Late: 0, Early: 0, Misses: 0
187-> Hits: 1096, Late: 0, Early: 0, Misses: 0
189-> Hits: 3278, Late: 585, Early: 0, Misses: 0
18a-> Hits: 153, Late: 0, Early: 0, Misses: 0
18b-> Hits: 868, Late: 1, Early: 0, Misses: 0
18d-> Hits: 205, Late: 0, Early: 0, Misses: 0
18e-> Hits: 233, Late: 0, Early: 0, Misses: 0
18f-> Hits: 2270, Late: 351, Early: 0, Misses: 3
190-> Hits: 1329, Late: 0, Early: 0, Misses: 0
193-> Hits: 4, Late: 0, Early: 0, Misses: 0
198-> Hits: 248, Late: 27, Early: 0, Misses: 0
19c-> Hits: 1995, Late: 366, Early: 0, Misses: 7
1a4-> Hits: 232, Late: 0, Early: 0, Misses: 0
1a7-> Hits: 233, Late: 0, Early: 0, Misses: 0
1aa-> Hits: 2990, Late: 512, Early: 0, Misses: 0
1ab-> Hits: 11, Late: 221, Early: 0, Misses: 0
1ad-> Hits: 2241, Late: 436, Early: 0, Misses: 23
1ae-> Hits: 2731, Late: 552, Early: 0, Misses: 2
1bb-> Hits: 580, Late: 15, Early: 0, Misses: 0
1c0-> Hits: 166, Late: 2, Early: 0, Misses: 0
1c2-> Hits: 1982, Late: 0, Early: 0, Misses: 0
1c3-> Hits: 1325, Late: 0, Early: 0, Misses: 0
1c4-> Hits: 1336, Late: 0, Early: 0, Misses: 0
1c5-> Hits: 2544, Late: 330, Early: 0, Misses: 0
1c7-> Hits: 464, Late: 0, Early: 0, Misses: 0
1c9-> Hits: 702, Late: 151, Early: 0, Misses: 1
1ca-> Hits: 12, Late: 0, Early: 0, Misses: 0
1cb-> Hits: 591, Late: 0, Early: 0, Misses: 0
1cc-> Hits: 2950, Late: 17, Early: 0, Misses: 0
1cd-> Hits: 668, Late: 0, Early: 0, Misses: 0
1cf-> Hits: 1219, Late: 5, Early: 0, Misses: 0
1d0-> Hits: 2983, Late: 157, Early: 0, Misses: 0
1d1-> Hits: 737, Late: 230, Early: 0, Misses: 0
1d4-> Hits: 3494, Late: 3, Early: 0, Misses: 3
1d7-> Hits: 24, Late: 0, Early: 0, Misses: 0
1e0-> Hits: 464, Late: 0, Early: 0, Misses: 0
1e3-> Hits: 9, Late: 0, Early: 0, Misses: 0
1e9-> Hits: 10485, Late: 0, Early: 0, Misses: 0
1ea-> Hits: 10495, Late: 0, Early: 0, Misses: 0
1f0-> Hits: 3133, Late: 0, Early: 0, Misses: 0
1f1-> Hits: 20, Late: 0, Early: 0, Misses: 0
1f5-> Hits: 533, Late: 23, Early: 0, Misses: 131
200-> Hits: 29, Late: 1, Early: 0, Misses: 0
202-> Hits: 3208, Late: 844, Early: 0, Misses: 5
203-> Hits: 9, Late: 0, Early: 0, Misses: 0
207-> Hits: 2434, Late: 0, Early: 0, Misses: 0
20e-> Hits: 2328, Late: 0, Early: 0, Misses: 0
210-> Hits: 844, Late: 0, Early: 0, Misses: 0
214-> Hits: 734, Late: 0, Early: 0, Misses: 0
215-> Hits: 2562, Late: 0, Early: 0, Misses: 0
218-> Hits: 694, Late: 198, Early: 0, Misses: 0
219-> Hits: 0, Late: 4, Early: 0, Misses: 0
21c-> Hits: 328, Late: 563, Early: 0, Misses: 0
21d-> Hits: 951, Late: 0, Early: 0, Misses: 0
220-> Hits: 1016, Late: 108, Early: 0, Misses: 0
223-> Hits: 9, Late: 0, Early: 0, Misses: 0
224-> Hits: 611, Late: 716, Early: 0, Misses: 12
225-> Hits: 0, Late: 4, Early: 0, Misses: 0
22b-> Hits: 413, Late: 160, Early: 0, Misses: 3
22f-> Hits: 1386, Late: 0, Early: 0, Misses: 0
230-> Hits: 430, Late: 0, Early: 0, Misses: 0
232-> Hits: 559, Late: 0, Early: 0, Misses: 0
235-> Hits: 2272, Late: 1, Early: 0, Misses: 0
236-> Hits: 1108, Late: 0, Early: 0, Misses: 0
23b-> Hits: 11, Late: 0, Early: 0, Misses: 0
23c-> Hits: 4178, Late: 0, Early: 0, Misses: 0
23d-> Hits: 1729, Late: 0, Early: 0, Misses: 0
23f-> Hits: 2327, Late: 0, Early: 0, Misses: 0
240-> Hits: 913, Late: 0, Early: 0, Misses: 0
241-> Hits: 2216, Late: 0, Early: 0, Misses: 0
242-> Hits: 13160, Late: 1283, Early: 0, Misses: 6
243-> Hits: 1108, Late: 0, Early: 0, Misses: 0
244-> Hits: 10, Late: 0, Early: 0, Misses: 0
245-> Hits: 4090, Late: 0, Early: 0, Misses: 1
246-> Hits: 1108, Late: 0, Early: 0, Misses: 0
247-> Hits: 174, Late: 0, Early: 0, Misses: 0
249-> Hits: 15, Late: 217, Early: 0, Misses: 0
24b-> Hits: 410, Late: 0, Early: 0, Misses: 0
24e-> Hits: 2094, Late: 1, Early: 0, Misses: 0
250-> Hits: 10948, Late: 499, Early: 0, Misses: 31
251-> Hits: 4, Late: 0, Early: 0, Misses: 0
252-> Hits: 4, Late: 0, Early: 0, Misses: 0
253-> Hits: 227, Late: 0, Early: 0, Misses: 0
254-> Hits: 1076, Late: 73, Early: 0, Misses: 0
255-> Hits: 17915, Late: 967, Early: 0, Misses: 121
256-> Hits: 233, Late: 0, Early: 0, Misses: 0
257-> Hits: 1560, Late: 0, Early: 0, Misses: 0
25b-> Hits: 1105, Late: 2, Early: 0, Misses: 1
25d-> Hits: 6914, Late: 182, Early: 0, Misses: 107
25e-> Hits: 729, Late: 0, Early: 0, Misses: 0
25f-> Hits: 745, Late: 0, Early: 0, Misses: 0
261-> Hits: 19502, Late: 659, Early: 0, Misses: 49
265-> Hits: 18796, Late: 1465, Early: 0, Misses: 187
267-> Hits: 1996, Late: 31, Early: 0, Misses: 0
269-> Hits: 202, Late: 0, Early: 0, Misses: 0
26e-> Hits: 9733, Late: 625, Early: 0, Misses: 25
270-> Hits: 8, Late: 0, Early: 0, Misses: 0
272-> Hits: 18685, Late: 1106, Early: 0, Misses: 131
273-> Hits: 919, Late: 0, Early: 0, Misses: 0
275-> Hits: 1881, Late: 166, Early: 0, Misses: 0
277-> Hits: 1011, Late: 0, Early: 0, Misses: 0
279-> Hits: 20, Late: 0, Early: 0, Misses: 0
27b-> Hits: 2504, Late: 232, Early: 0, Misses: 6
280-> Hits: 2485, Late: 1, Early: 0, Misses: 0
281-> Hits: 867, Late: 226, Early: 0, Misses: 15
283-> Hits: 8023, Late: 131, Early: 0, Misses: 2
287-> Hits: 1, Late: 0, Early: 0, Misses: 0
288-> Hits: 19189, Late: 709, Early: 0, Misses: 202
289-> Hits: 219, Late: 0, Early: 0, Misses: 0
28a-> Hits: 723, Late: 0, Early: 0, Misses: 0
28b-> Hits: 4, Late: 132, Early: 0, Misses: 0
28c-> Hits: 330, Late: 0, Early: 0, Misses: 0
28d-> Hits: 427, Late: 0, Early: 0, Misses: 0
28e-> Hits: 339, Late: 0, Early: 0, Misses: 0
28f-> Hits: 1107, Late: 0, Early: 0, Misses: 1
290-> Hits: 376, Late: 0, Early: 0, Misses: 0
292-> Hits: 415, Late: 0, Early: 0, Misses: 0
293-> Hits: 415, Late: 0, Early: 0, Misses: 0
297-> Hits: 526, Late: 0, Early: 0, Misses: 0
29b-> Hits: 3227, Late: 0, Early: 0, Misses: 0
2a0-> Hits: 4143, Late: 0, Early: 0, Misses: 0
2a1-> Hits: 232, Late: 0, Early: 0, Misses: 0
2a6-> Hits: 11102, Late: 0, Early: 0, Misses: 0
2a7-> Hits: 12363, Late: 0, Early: 0, Misses: 0
2a9-> Hits: 13125, Late: 0, Early: 0, Misses: 0
2ab-> Hits: 18953, Late: 0, Early: 0, Misses: 0
2ac-> Hits: 1969, Late: 0, Early: 0, Misses: 0
2ad-> Hits: 19193, Late: 0, Early: 0, Misses: 0
2ae-> Hits: 232, Late: 0, Early: 0, Misses: 0
2af-> Hits: 18961, Late: 0, Early: 0, Misses: 0
2b0-> Hits: 18976, Late: 0, Early: 0, Misses: 0
2b2-> Hits: 320, Late: 0, Early: 0, Misses: 0
2b3-> Hits: 1108, Late: 0, Early: 0, Misses: 0
2b4-> Hits: 1012, Late: 49, Early: 0, Misses: 47
2b6-> Hits: 191, Late: 0, Early: 0, Misses: 0
2b8-> Hits: 438, Late: 0, Early: 0, Misses: 0
2b9-> Hits: 2395, Late: 0, Early: 0, Misses: 0
2bb-> Hits: 2658, Late: 0, Early: 0, Misses: 0
2bc-> Hits: 8, Late: 0, Early: 0, Misses: 0
2bd-> Hits: 3221, Late: 0, Early: 0, Misses: 0
2be-> Hits: 2492, Late: 0, Early: 0, Misses: 0
2bf-> Hits: 1818, Late: 177, Early: 0, Misses: 31
2c2-> Hits: 1799, Late: 227, Early: 0, Misses: 0
2c6-> Hits: 117, Late: 0, Early: 0, Misses: 0
2cc-> Hits: 2026, Late: 0, Early: 0, Misses: 0
2d5-> Hits: 643, Late: 0, Early: 0, Misses: 0
2d9-> Hits: 122, Late: 0, Early: 0, Misses: 0
2da-> Hits: 887, Late: 0, Early: 0, Misses: 0
2dc-> Hits: 1108, Late: 0, Early: 0, Misses: 0
2de-> Hits: 196, Late: 0, Early: 0, Misses: 0
2e0-> Hits: 960, Late: 217, Early: 0, Misses: 5
2e1-> Hits: 232, Late: 0, Early: 0, Misses: 0
2e2-> Hits: 1108, Late: 0, Early: 0, Misses: 0
2e3-> Hits: 1107, Late: 0, Early: 0, Misses: 1
2e6-> Hits: 1108, Late: 0, Early: 0, Misses: 0
2e8-> Hits: 232, Late: 0, Early: 0, Misses: 0
2e9-> Hits: 893, Late: 0, Early: 0, Misses: 0
2ec-> Hits: 3, Late: 0, Early: 0, Misses: 0
2ed-> Hits: 895, Late: 0, Early: 0, Misses: 5
2f0-> Hits: 2006, Late: 284, Early: 0, Misses: 0
2f1-> Hits: 1108, Late: 0, Early: 0, Misses: 0
2f6-> Hits: 171, Late: 0, Early: 0, Misses: 0
2f7-> Hits: 178, Late: 0, Early: 0, Misses: 0
2f9-> Hits: 1059, Late: 0, Early: 0, Misses: 0
2fb-> Hits: 1301, Late: 1, Early: 0, Misses: 0
2fd-> Hits: 1299, Late: 0, Early: 0, Misses: 0
2fe-> Hits: 749, Late: 354, Early: 0, Misses: 5
301-> Hits: 28, Late: 254, Early: 0, Misses: 0
304-> Hits: 66, Late: 216, Early: 0, Misses: 0
308-> Hits: 929, Late: 0, Early: 0, Misses: 0
309-> Hits: 1108, Late: 0, Early: 0, Misses: 0
30a-> Hits: 6038, Late: 247, Early: 0, Misses: 0
310-> Hits: 4656, Late: 162, Early: 0, Misses: 42
311-> Hits: 1583, Late: 1, Early: 0, Misses: 0
314-> Hits: 1969, Late: 37, Early: 0, Misses: 25
318-> Hits: 1108, Late: 0, Early: 0, Misses: 0
319-> Hits: 263, Late: 17, Early: 0, Misses: 0
31a-> Hits: 929, Late: 0, Early: 0, Misses: 0
31b-> Hits: 1782, Late: 249, Early: 0, Misses: 0
31e-> Hits: 3134, Late: 0, Early: 0, Misses: 0
31f-> Hits: 1107, Late: 0, Early: 0, Misses: 1
320-> Hits: 1, Late: 3, Early: 0, Misses: 0
325-> Hits: 188, Late: 44, Early: 0, Misses: 0
326-> Hits: 3326, Late: 44, Early: 0, Misses: 1
327-> Hits: 0, Late: 3, Early: 0, Misses: 0
32a-> Hits: 394, Late: 0, Early: 0, Misses: 0
32b-> Hits: 3134, Late: 0, Early: 0, Misses: 0
32c-> Hits: 2026, Late: 0, Early: 0, Misses: 0
32d-> Hits: 47437, Late: 486, Early: 0, Misses: 0
32e-> Hits: 2152, Late: 0, Early: 0, Misses: 0
330-> Hits: 20973, Late: 8, Early: 0, Misses: 0
332-> Hits: 2026, Late: 0, Early: 0, Misses: 0
333-> Hits: 2296, Late: 0, Early: 0, Misses: 0
334-> Hits: 2026, Late: 0, Early: 0, Misses: 0
335-> Hits: 2026, Late: 0, Early: 0, Misses: 0
337-> Hits: 1972, Late: 11, Early: 0, Misses: 0
33a-> Hits: 10895, Late: 18, Early: 0, Misses: 0
33b-> Hits: 394, Late: 0, Early: 0, Misses: 0
33e-> Hits: 929, Late: 0, Early: 0, Misses: 0
33f-> Hits: 882, Late: 223, Early: 0, Misses: 3
340-> Hits: 156, Late: 1, Early: 0, Misses: 0
342-> Hits: 929, Late: 0, Early: 0, Misses: 0
345-> Hits: 929, Late: 0, Early: 0, Misses: 0
346-> Hits: 5546, Late: 217, Early: 0, Misses: 3
347-> Hits: 914, Late: 121, Early: 0, Misses: 2
348-> Hits: 1107, Late: 1, Early: 0, Misses: 0
350-> Hits: 18430, Late: 68, Early: 0, Misses: 1
351-> Hits: 1043, Late: 0, Early: 0, Misses: 0
353-> Hits: 1809, Late: 0, Early: 0, Misses: 0
355-> Hits: 29258, Late: 226, Early: 0, Misses: 0
356-> Hits: 1823, Late: 213, Early: 0, Misses: 1
357-> Hits: 933, Late: 171, Early: 0, Misses: 3
358-> Hits: 882, Late: 226, Early: 0, Misses: 0
359-> Hits: 3098, Late: 8, Early: 0, Misses: 0
35a-> Hits: 5727, Late: 0, Early: 0, Misses: 5
35c-> Hits: 891, Late: 221, Early: 0, Misses: 0
35d-> Hits: 3221, Late: 2040, Early: 0, Misses: 12
35e-> Hits: 269, Late: 11, Early: 0, Misses: 2
35f-> Hits: 549, Late: 0, Early: 0, Misses: 0
360-> Hits: 679, Late: 0, Early: 0, Misses: 0
362-> Hits: 705, Late: 0, Early: 0, Misses: 0
363-> Hits: 1798, Late: 219, Early: 0, Misses: 2
367-> Hits: 258, Late: 11, Early: 0, Misses: 0
36b-> Hits: 22467, Late: 0, Early: 0, Misses: 0
36c-> Hits: 12, Late: 0, Early: 0, Misses: 0
370-> Hits: 699, Late: 0, Early: 0, Misses: 0
372-> Hits: 113, Late: 0, Early: 0, Misses: 0
375-> Hits: 28232, Late: 1366, Early: 0, Misses: 0
376-> Hits: 481, Late: 627, Early: 0, Misses: 0
377-> Hits: 39024, Late: 0, Early: 0, Misses: 0
37e-> Hits: 34484, Late: 1209, Early: 0, Misses: 310
380-> Hits: 8, Late: 0, Early: 0, Misses: 0
381-> Hits: 754, Late: 354, Early: 0, Misses: 0
383-> Hits: 1108, Late: 0, Early: 0, Misses: 0
384-> Hits: 28891, Late: 457, Early: 0, Misses: 0
388-> Hits: 318, Late: 0, Early: 0, Misses: 0
389-> Hits: 1337, Late: 0, Early: 0, Misses: 0
38b-> Hits: 232, Late: 0, Early: 0, Misses: 0
38d-> Hits: 281, Late: 0, Early: 0, Misses: 0
38e-> Hits: 4495, Late: 5, Early: 0, Misses: 0
38f-> Hits: 113720, Late: 121, Early: 0, Misses: 0
391-> Hits: 329, Late: 0, Early: 0, Misses: 0
392-> Hits: 15, Late: 0, Early: 0, Misses: 0
395-> Hits: 879, Late: 222, Early: 0, Misses: 7
397-> Hits: 233, Late: 0, Early: 0, Misses: 0
398-> Hits: 5292, Late: 0, Early: 0, Misses: 0
399-> Hits: 1106, Late: 0, Early: 0, Misses: 0
39b-> Hits: 3572, Late: 1747, Early: 0, Misses: 105
39d-> Hits: 1083, Late: 1, Early: 0, Misses: 24
39f-> Hits: 457, Late: 14, Early: 0, Misses: 0
3a1-> Hits: 192, Late: 0, Early: 0, Misses: 0
3a4-> Hits: 3416, Late: 0, Early: 0, Misses: 0
3a5-> Hits: 2045, Late: 1, Early: 0, Misses: 0
3ab-> Hits: 131, Late: 0, Early: 0, Misses: 0
3ac-> Hits: 0, Late: 0, Early: 0, Misses: 7
3b0-> Hits: 1184, Late: 0, Early: 0, Misses: 0
3b1-> Hits: 1156, Late: 0, Early: 0, Misses: 0
3b5-> Hits: 30930, Late: 0, Early: 0, Misses: 0
3b6-> Hits: 2367, Late: 0, Early: 0, Misses: 0
3b7-> Hits: 858, Late: 0, Early: 0, Misses: 0
3b8-> Hits: 233, Late: 0, Early: 0, Misses: 0
3bc-> Hits: 247, Late: 0, Early: 0, Misses: 0
3bf-> Hits: 233, Late: 0, Early: 0, Misses: 0
3c0-> Hits: 25064, Late: 879, Early: 0, Misses: 4
3c2-> Hits: 112, Late: 0, Early: 0, Misses: 0
3c4-> Hits: 1108, Late: 0, Early: 0, Misses: 0
3c6-> Hits: 233, Late: 0, Early: 0, Misses: 0
3c7-> Hits: 49, Late: 0, Early: 0, Misses: 0
3cb-> Hits: 253, Late: 0, Early: 0, Misses: 0
3cc-> Hits: 3211, Late: 0, Early: 0, Misses: 0
3ce-> Hits: 233, Late: 0, Early: 0, Misses: 0
3cf-> Hits: 39, Late: 0, Early: 0, Misses: 0
3d0-> Hits: 2416, Late: 0, Early: 0, Misses: 0
3d2-> Hits: 2168, Late: 0, Early: 0, Misses: 0
3d3-> Hits: 506, Late: 5, Early: 0, Misses: 0
3d6-> Hits: 576, Late: 0, Early: 0, Misses: 0
3d7-> Hits: 1464, Late: 32, Early: 0, Misses: 0
3d9-> Hits: 830, Late: 0, Early: 0, Misses: 0
3e0-> Hits: 4923, Late: 17, Early: 0, Misses: 0
3e1-> Hits: 167, Late: 0, Early: 0, Misses: 0
3e2-> Hits: 232, Late: 0, Early: 0, Misses: 0
3e3-> Hits: 1144, Late: 6, Early: 0, Misses: 0
3e4-> Hits: 191, Late: 41, Early: 0, Misses: 0
3e6-> Hits: 0, Late: 49, Early: 0, Misses: 0
3e7-> Hits: 419, Late: 45, Early: 0, Misses: 0
3e8-> Hits: 1135, Late: 1, Early: 0, Misses: 0
3ea-> Hits: 2263, Late: 0, Early: 0, Misses: 2
3eb-> Hits: 4367, Late: 0, Early: 0, Misses: 0
3ee-> Hits: 117, Late: 42, Early: 0, Misses: 1
3ef-> Hits: 122, Late: 217, Early: 0, Misses: 5
3f0-> Hits: 939, Late: 0, Early: 0, Misses: 0
3f1-> Hits: 826, Late: 0, Early: 0, Misses: 0
3f5-> Hits: 33, Late: 3, Early: 0, Misses: 0
3f9-> Hits: 1277, Late: 0, Early: 0, Misses: 0
3fa-> Hits: 131, Late: 101, Early: 0, Misses: 0
3fb-> Hits: 49, Late: 0, Early: 0, Misses: 0
3fd-> Hits: 67, Late: 123, Early: 0, Misses: 0
3ff-> Hits: 29, Late: 0, Early: 0, Misses: 0
400-> Hits: 118, Late: 0, Early: 0, Misses: 0
402-> Hits: 132, Late: 40, Early: 0, Misses: 2
404-> Hits: 1107, Late: 0, Early: 0, Misses: 0
406-> Hits: 695, Late: 179, Early: 0, Misses: 0
409-> Hits: 11, Late: 0, Early: 0, Misses: 0
40d-> Hits: 205, Late: 11, Early: 0, Misses: 0
40f-> Hits: 156, Late: 70, Early: 0, Misses: 6
410-> Hits: 1235, Late: 3, Early: 0, Misses: 0
411-> Hits: 24, Late: 0, Early: 0, Misses: 0
412-> Hits: 126, Late: 0, Early: 0, Misses: 0
413-> Hits: 18, Late: 166, Early: 0, Misses: 0
414-> Hits: 1108, Late: 0, Early: 0, Misses: 0
417-> Hits: 232, Late: 0, Early: 0, Misses: 0
418-> Hits: 1791, Late: 0, Early: 0, Misses: 0
41a-> Hits: 232, Late: 0, Early: 0, Misses: 0
41b-> Hits: 486, Late: 0, Early: 0, Misses: 0
41c-> Hits: 591, Late: 0, Early: 0, Misses: 0
41e-> Hits: 184, Late: 0, Early: 0, Misses: 0
420-> Hits: 867, Late: 8, Early: 0, Misses: 0
423-> Hits: 232, Late: 0, Early: 0, Misses: 0
425-> Hits: 2216, Late: 169, Early: 0, Misses: 0
428-> Hits: 232, Late: 0, Early: 0, Misses: 0
42a-> Hits: 277, Late: 3, Early: 0, Misses: 1
42b-> Hits: 49, Late: 0, Early: 0, Misses: 0
42c-> Hits: 19, Late: 165, Early: 0, Misses: 0
42d-> Hits: 49, Late: 0, Early: 0, Misses: 0
42f-> Hits: 49, Late: 0, Early: 0, Misses: 0
431-> Hits: 49, Late: 0, Early: 0, Misses: 0
432-> Hits: 944, Late: 0, Early: 0, Misses: 0
433-> Hits: 49, Late: 0, Early: 0, Misses: 0
434-> Hits: 49, Late: 0, Early: 0, Misses: 0
436-> Hits: 8, Late: 0, Early: 0, Misses: 0
437-> Hits: 160, Late: 0, Early: 0, Misses: 0
439-> Hits: 2, Late: 0, Early: 0, Misses: 0
43a-> Hits: 232, Late: 0, Early: 0, Misses: 0
43d-> Hits: 250, Late: 166, Early: 0, Misses: 0
43f-> Hits: 1108, Late: 0, Early: 0, Misses: 0
442-> Hits: 6630, Late: 0, Early: 0, Misses: 0
443-> Hits: 1107, Late: 0, Early: 0, Misses: 0
444-> Hits: 232, Late: 0, Early: 0, Misses: 0
445-> Hits: 1120, Late: 136, Early: 0, Misses: 0
446-> Hits: 232, Late: 0, Early: 0, Misses: 0
447-> Hits: 232, Late: 0, Early: 0, Misses: 0
449-> Hits: 1206, Late: 0, Early: 0, Misses: 0
44a-> Hits: 875, Late: 0, Early: 0, Misses: 0
44d-> Hits: 731, Late: 0, Early: 0, Misses: 0
44e-> Hits: 15751, Late: 1825, Early: 0, Misses: 160
451-> Hits: 875, Late: 0, Early: 0, Misses: 0
454-> Hits: 225, Late: 0, Early: 0, Misses: 0
456-> Hits: 51, Late: 0, Early: 0, Misses: 0
458-> Hits: 27, Late: 0, Early: 0, Misses: 0
459-> Hits: 1949, Late: 103, Early: 0, Misses: 1
45a-> Hits: 747, Late: 0, Early: 0, Misses: 0
45e-> Hits: 118, Late: 0, Early: 0, Misses: 0
461-> Hits: 3772, Late: 167, Early: 0, Misses: 7
463-> Hits: 232, Late: 0, Early: 0, Misses: 0
464-> Hits: 44, Late: 0, Early: 0, Misses: 0
465-> Hits: 232, Late: 0, Early: 0, Misses: 0
467-> Hits: 1196, Late: 0, Early: 0, Misses: 0
468-> Hits: 1157, Late: 0, Early: 0, Misses: 0
469-> Hits: 2214, Late: 0, Early: 0, Misses: 0
46a-> Hits: 1108, Late: 0, Early: 0, Misses: 0
46b-> Hits: 1340, Late: 0, Early: 0, Misses: 0
46c-> Hits: 5023, Late: 26, Early: 0, Misses: 0
46d-> Hits: 2216, Late: 0, Early: 0, Misses: 0
46e-> Hits: 1178, Late: 0, Early: 0, Misses: 0
46f-> Hits: 2220, Late: 0, Early: 0, Misses: 0
470-> Hits: 280, Late: 0, Early: 0, Misses: 0
471-> Hits: 2216, Late: 0, Early: 0, Misses: 0
472-> Hits: 2699, Late: 109, Early: 0, Misses: 3
473-> Hits: 805, Late: 0, Early: 0, Misses: 0
475-> Hits: 280, Late: 0, Early: 0, Misses: 0
476-> Hits: 566, Late: 67, Early: 0, Misses: 0
477-> Hits: 400, Late: 0, Early: 0, Misses: 0
479-> Hits: 161, Late: 0, Early: 0, Misses: 0
47a-> Hits: 184, Late: 48, Early: 0, Misses: 0
47c-> Hits: 280, Late: 0, Early: 0, Misses: 0
480-> Hits: 256, Late: 0, Early: 0, Misses: 0
483-> Hits: 512, Late: 0, Early: 0, Misses: 0
484-> Hits: 9789, Late: 0, Early: 0, Misses: 0
485-> Hits: 1473, Late: 83, Early: 0, Misses: 0
486-> Hits: 186, Late: 48, Early: 0, Misses: 0
488-> Hits: 9590, Late: 0, Early: 0, Misses: 0
489-> Hits: 280, Late: 0, Early: 0, Misses: 0
48a-> Hits: 117, Late: 0, Early: 0, Misses: 0
48c-> Hits: 747, Late: 0, Early: 0, Misses: 0
48d-> Hits: 1107, Late: 43, Early: 0, Misses: 2
490-> Hits: 69, Late: 0, Early: 0, Misses: 0
492-> Hits: 1886, Late: 0, Early: 0, Misses: 0
493-> Hits: 621, Late: 0, Early: 0, Misses: 0
494-> Hits: 755, Late: 0, Early: 0, Misses: 0
496-> Hits: 621, Late: 0, Early: 0, Misses: 0
498-> Hits: 239, Late: 41, Early: 0, Misses: 0
49a-> Hits: 282, Late: 0, Early: 0, Misses: 0
49b-> Hits: 275, Late: 1, Early: 0, Misses: 0
49c-> Hits: 233, Late: 0, Early: 0, Misses: 0
49e-> Hits: 515, Late: 0, Early: 0, Misses: 0
4a0-> Hits: 383, Late: 0, Early: 0, Misses: 0
4a1-> Hits: 282, Late: 0, Early: 0, Misses: 0
4a2-> Hits: 233, Late: 0, Early: 0, Misses: 0
4a3-> Hits: 1517, Late: 1, Early: 0, Misses: 0
4a6-> Hits: 305, Late: 5, Early: 0, Misses: 1
4a7-> Hits: 747, Late: 0, Early: 0, Misses: 0
4a9-> Hits: 143, Late: 0, Early: 0, Misses: 0
4aa-> Hits: 1341, Late: 0, Early: 0, Misses: 0
4ac-> Hits: 282, Late: 0, Early: 0, Misses: 0
4ad-> Hits: 514, Late: 0, Early: 0, Misses: 0
4ae-> Hits: 811, Late: 0, Early: 0, Misses: 0
4af-> Hits: 515, Late: 0, Early: 0, Misses: 0
4b0-> Hits: 493, Late: 34, Early: 0, Misses: 0
4b1-> Hits: 1029, Late: 0, Early: 0, Misses: 0
4b3-> Hits: 341, Late: 0, Early: 0, Misses: 0
4b4-> Hits: 514, Late: 47, Early: 0, Misses: 0
4b5-> Hits: 282, Late: 0, Early: 0, Misses: 0
4b6-> Hits: 331, Late: 0, Early: 0, Misses: 0
4b8-> Hits: 1155, Late: 0, Early: 0, Misses: 1
4ba-> Hits: 49, Late: 0, Early: 0, Misses: 0
4bb-> Hits: 1107, Late: 0, Early: 0, Misses: 0
4bc-> Hits: 49, Late: 0, Early: 0, Misses: 0
4bf-> Hits: 960, Late: 8, Early: 0, Misses: 0
4c1-> Hits: 139, Late: 0, Early: 0, Misses: 0
4c2-> Hits: 232, Late: 0, Early: 0, Misses: 0
4c7-> Hits: 682, Late: 0, Early: 0, Misses: 1
4c9-> Hits: 280, Late: 0, Early: 0, Misses: 0
4cb-> Hits: 23220, Late: 115, Early: 0, Misses: 0
4cf-> Hits: 232, Late: 0, Early: 0, Misses: 0
4d0-> Hits: 280, Late: 0, Early: 0, Misses: 0
4d1-> Hits: 126437, Late: 247530, Early: 0, Misses: 67
4d2-> Hits: 634, Late: 11, Early: 0, Misses: 1
4d3-> Hits: 373, Late: 0, Early: 0, Misses: 0
4d4-> Hits: 919, Late: 0, Early: 0, Misses: 0
4d5-> Hits: 233, Late: 0, Early: 0, Misses: 0
4d7-> Hits: 233, Late: 0, Early: 0, Misses: 0
4d8-> Hits: 263, Late: 174, Early: 0, Misses: 1
4d9-> Hits: 233, Late: 0, Early: 0, Misses: 0
4db-> Hits: 698, Late: 0, Early: 0, Misses: 0
4dc-> Hits: 915, Late: 0, Early: 0, Misses: 1
4df-> Hits: 100, Late: 0, Early: 0, Misses: 0
4e0-> Hits: 637896, Late: 119466, Early: 0, Misses: 5
4e1-> Hits: 232, Late: 0, Early: 0, Misses: 0
4e4-> Hits: 152, Late: 1, Early: 0, Misses: 0
4e8-> Hits: 2435, Late: 406, Early: 0, Misses: 2
4e9-> Hits: 47, Late: 0, Early: 0, Misses: 0
4ea-> Hits: 62, Late: 0, Early: 0, Misses: 0
4ef-> Hits: 2821, Late: 72, Early: 0, Misses: 0
4f0-> Hits: 1108, Late: 3, Early: 0, Misses: 0
4f1-> Hits: 1108, Late: 0, Early: 0, Misses: 0
4f2-> Hits: 683, Late: 0, Early: 0, Misses: 0
4f3-> Hits: 1108, Late: 0, Early: 0, Misses: 0
4f4-> Hits: 50, Late: 0, Early: 0, Misses: 0
4f5-> Hits: 1108, Late: 0, Early: 0, Misses: 0
4f7-> Hits: 374941, Late: 0, Early: 0, Misses: 0
4f8-> Hits: 1108, Late: 0, Early: 0, Misses: 0
4f9-> Hits: 1573, Late: 0, Early: 0, Misses: 0
4fd-> Hits: 5, Late: 0, Early: 0, Misses: 0
4fe-> Hits: 1322, Late: 0, Early: 0, Misses: 0
502-> Hits: 3685, Late: 34, Early: 0, Misses: 0
508-> Hits: 18309, Late: 0, Early: 0, Misses: 0
509-> Hits: 18176, Late: 201, Early: 0, Misses: 0
50b-> Hits: 18392, Late: 0, Early: 0, Misses: 0
50d-> Hits: 17738, Late: 0, Early: 0, Misses: 0
50e-> Hits: 497, Late: 0, Early: 0, Misses: 0
50f-> Hits: 18326, Late: 0, Early: 0, Misses: 0
510-> Hits: 1075547, Late: 0, Early: 0, Misses: 0
511-> Hits: 18235, Late: 0, Early: 0, Misses: 0
512-> Hits: 17738, Late: 0, Early: 0, Misses: 0
516-> Hits: 1, Late: 0, Early: 0, Misses: 0
517-> Hits: 3250, Late: 0, Early: 0, Misses: 0
51e-> Hits: 683, Late: 0, Early: 0, Misses: 0
51f-> Hits: 3625, Late: 0, Early: 0, Misses: 0
520-> Hits: 747, Late: 0, Early: 0, Misses: 0
521-> Hits: 747, Late: 0, Early: 0, Misses: 0
523-> Hits: 747, Late: 3, Early: 0, Misses: 0
525-> Hits: 837, Late: 0, Early: 0, Misses: 0
526-> Hits: 838, Late: 0, Early: 0, Misses: 0
527-> Hits: 91, Late: 0, Early: 0, Misses: 0
529-> Hits: 97, Late: 0, Early: 0, Misses: 0
52a-> Hits: 2594, Late: 0, Early: 0, Misses: 0
52b-> Hits: 97, Late: 0, Early: 0, Misses: 0
52d-> Hits: 97, Late: 0, Early: 0, Misses: 0
52f-> Hits: 97, Late: 0, Early: 0, Misses: 0
531-> Hits: 218, Late: 0, Early: 0, Misses: 0
534-> Hits: 364, Late: 0, Early: 0, Misses: 0
53a-> Hits: 233, Late: 0, Early: 0, Misses: 0
540-> Hits: 42, Late: 0, Early: 0, Misses: 0
548-> Hits: 48, Late: 0, Early: 0, Misses: 0
54b-> Hits: 22, Late: 0, Early: 0, Misses: 0
54d-> Hits: 2322, Late: 0, Early: 0, Misses: 0
552-> Hits: 870, Late: 69, Early: 0, Misses: 0
558-> Hits: 1107, Late: 0, Early: 0, Misses: 0
55b-> Hits: 874, Late: 55, Early: 0, Misses: 0
564-> Hits: 1004, Late: 38, Early: 0, Misses: 0
565-> Hits: 270, Late: 0, Early: 0, Misses: 0
567-> Hits: 1282, Late: 0, Early: 0, Misses: 0
568-> Hits: 1100, Late: 7, Early: 0, Misses: 0
569-> Hits: 17359, Late: 164, Early: 0, Misses: 189
56b-> Hits: 29, Late: 0, Early: 0, Misses: 0
570-> Hits: 953, Late: 0, Early: 0, Misses: 0
572-> Hits: 17605, Late: 0, Early: 0, Misses: 0
574-> Hits: 102, Late: 0, Early: 0, Misses: 0
576-> Hits: 34, Late: 0, Early: 0, Misses: 0
578-> Hits: 1126, Late: 48, Early: 0, Misses: 0
579-> Hits: 559, Late: 0, Early: 0, Misses: 0
57b-> Hits: 4614, Late: 287, Early: 0, Misses: 1
57d-> Hits: 713, Late: 0, Early: 0, Misses: 0
57e-> Hits: 143, Late: 0, Early: 0, Misses: 0
57f-> Hits: 751, Late: 171, Early: 0, Misses: 0
581-> Hits: 759, Late: 0, Early: 0, Misses: 0
582-> Hits: 1, Late: 0, Early: 0, Misses: 0
586-> Hits: 11, Late: 221, Early: 0, Misses: 0
587-> Hits: 830, Late: 0, Early: 0, Misses: 0
588-> Hits: 1094, Late: 0, Early: 0, Misses: 0
589-> Hits: 9, Late: 175, Early: 0, Misses: 0
58a-> Hits: 1242, Late: 0, Early: 0, Misses: 0
58b-> Hits: 806, Late: 95, Early: 0, Misses: 0
58c-> Hits: 1107, Late: 0, Early: 0, Misses: 0
58d-> Hits: 557, Late: 0, Early: 0, Misses: 0
590-> Hits: 510, Late: 62, Early: 0, Misses: 1
591-> Hits: 782, Late: 146, Early: 0, Misses: 1
593-> Hits: 17480, Late: 0, Early: 0, Misses: 0
594-> Hits: 22269, Late: 254, Early: 0, Misses: 9
597-> Hits: 146, Late: 1, Early: 0, Misses: 0
598-> Hits: 852, Late: 28, Early: 0, Misses: 0
599-> Hits: 45, Late: 0, Early: 0, Misses: 0
59a-> Hits: 3909, Late: 265, Early: 0, Misses: 0
59b-> Hits: 1, Late: 279, Early: 0, Misses: 0
59e-> Hits: 233, Late: 0, Early: 0, Misses: 0
59f-> Hits: 121, Late: 0, Early: 0, Misses: 0
5a0-> Hits: 282, Late: 0, Early: 0, Misses: 0
5a5-> Hits: 171, Late: 0, Early: 0, Misses: 0
5a6-> Hits: 239, Late: 0, Early: 0, Misses: 0
5a8-> Hits: 233, Late: 0, Early: 0, Misses: 0
5a9-> Hits: 3940, Late: 234, Early: 0, Misses: 0
5aa-> Hits: 595, Late: 457, Early: 0, Misses: 0
5ad-> Hits: 493, Late: 0, Early: 0, Misses: 0
5b0-> Hits: 3055, Late: 586, Early: 0, Misses: 11
5b1-> Hits: 192, Late: 112, Early: 0, Misses: 6
5b4-> Hits: 174, Late: 0, Early: 0, Misses: 0
5b5-> Hits: 3397, Late: 392, Early: 0, Misses: 0
5b6-> Hits: 5, Late: 0, Early: 0, Misses: 2
5b7-> Hits: 30, Late: 2, Early: 0, Misses: 0
5bc-> Hits: 136, Late: 0, Early: 0, Misses: 0
5be-> Hits: 2, Late: 0, Early: 0, Misses: 0
5c0-> Hits: 4059, Late: 0, Early: 0, Misses: 0
5c1-> Hits: 96, Late: 26, Early: 0, Misses: 0
5c2-> Hits: 11425, Late: 295, Early: 0, Misses: 0
5c4-> Hits: 374064, Late: 1, Early: 0, Misses: 0
5c5-> Hits: 184, Late: 0, Early: 0, Misses: 0
5c6-> Hits: 62, Late: 0, Early: 0, Misses: 0
5c7-> Hits: 378511, Late: 140, Early: 0, Misses: 26
5c8-> Hits: 233, Late: 0, Early: 0, Misses: 0
5ca-> Hits: 621, Late: 0, Early: 0, Misses: 0
5cb-> Hits: 1, Late: 0, Early: 0, Misses: 0
5cd-> Hits: 621, Late: 0, Early: 0, Misses: 0
5ce-> Hits: 551, Late: 0, Early: 0, Misses: 0
5cf-> Hits: 6931, Late: 378, Early: 0, Misses: 3
5d0-> Hits: 43, Late: 0, Early: 0, Misses: 0
5d4-> Hits: 375180, Late: 1, Early: 0, Misses: 0
5d5-> Hits: 1413, Late: 0, Early: 0, Misses: 0
5d6-> Hits: 484, Late: 0, Early: 0, Misses: 0
5d7-> Hits: 2202, Late: 62, Early: 0, Misses: 2
5d9-> Hits: 238, Late: 0, Early: 0, Misses: 2
5da-> Hits: 310, Late: 0, Early: 0, Misses: 0
5db-> Hits: 267, Late: 2, Early: 0, Misses: 0
5dc-> Hits: 375176, Late: 0, Early: 0, Misses: 0
5dd-> Hits: 374119, Late: 103, Early: 0, Misses: 0
5de-> Hits: 887, Late: 0, Early: 0, Misses: 0
5e0-> Hits: 1393, Late: 0, Early: 0, Misses: 0
5e3-> Hits: 621, Late: 0, Early: 0, Misses: 0
5e5-> Hits: 235, Late: 0, Early: 0, Misses: 0
5e8-> Hits: 49, Late: 1, Early: 0, Misses: 183
5ea-> Hits: 8214, Late: 131, Early: 0, Misses: 0
5eb-> Hits: 10, Late: 0, Early: 0, Misses: 0
5ec-> Hits: 77, Late: 0, Early: 0, Misses: 0
5ee-> Hits: 2133, Late: 0, Early: 0, Misses: 1
5ef-> Hits: 184, Late: 0, Early: 0, Misses: 0
5f0-> Hits: 10304, Late: 113, Early: 0, Misses: 0
5f3-> Hits: 72, Late: 1, Early: 0, Misses: 0
5f4-> Hits: 1104, Late: 32, Early: 0, Misses: 0
5f5-> Hits: 1, Late: 0, Early: 0, Misses: 0
5f6-> Hits: 12, Late: 0, Early: 0, Misses: 0
5f7-> Hits: 912, Late: 231, Early: 0, Misses: 12
5fa-> Hits: 100, Late: 0, Early: 0, Misses: 0
5fc-> Hits: 12, Late: 171, Early: 0, Misses: 1
5fe-> Hits: 895, Late: 250, Early: 0, Misses: 0
602-> Hits: 1948, Late: 142, Early: 0, Misses: 0
603-> Hits: 78, Late: 1, Early: 0, Misses: 67
604-> Hits: 852, Late: 50, Early: 0, Misses: 0
605-> Hits: 637, Late: 3, Early: 0, Misses: 0
606-> Hits: 1634, Late: 14, Early: 0, Misses: 0
607-> Hits: 4951, Late: 40, Early: 0, Misses: 5
608-> Hits: 180, Late: 0, Early: 0, Misses: 0
609-> Hits: 1201, Late: 92, Early: 0, Misses: 0
60a-> Hits: 1, Late: 0, Early: 0, Misses: 0
60b-> Hits: 385, Late: 0, Early: 0, Misses: 0
60e-> Hits: 280, Late: 0, Early: 0, Misses: 0
60f-> Hits: 8, Late: 0, Early: 0, Misses: 0
610-> Hits: 3355, Late: 44, Early: 0, Misses: 1
612-> Hits: 457, Late: 311, Early: 0, Misses: 0
614-> Hits: 5692, Late: 52, Early: 0, Misses: 0
615-> Hits: 880, Late: 0, Early: 0, Misses: 0
616-> Hits: 47, Late: 0, Early: 0, Misses: 0
617-> Hits: 881, Late: 231, Early: 0, Misses: 0
619-> Hits: 1285, Late: 363, Early: 0, Misses: 0
61b-> Hits: 880, Late: 0, Early: 0, Misses: 0
61c-> Hits: 2868, Late: 0, Early: 0, Misses: 0
61d-> Hits: 4057, Late: 0, Early: 0, Misses: 0
61e-> Hits: 880, Late: 0, Early: 0, Misses: 0
61f-> Hits: 3957, Late: 0, Early: 0, Misses: 0
621-> Hits: 825, Late: 0, Early: 0, Misses: 0
622-> Hits: 233, Late: 0, Early: 0, Misses: 0
624-> Hits: 280, Late: 0, Early: 0, Misses: 0
626-> Hits: 1090, Late: 0, Early: 0, Misses: 0
627-> Hits: 0, Late: 49, Early: 0, Misses: 0
628-> Hits: 57, Late: 222, Early: 0, Misses: 0
62c-> Hits: 74, Late: 0, Early: 0, Misses: 0
62d-> Hits: 154, Late: 0, Early: 0, Misses: 0
62e-> Hits: 184, Late: 0, Early: 0, Misses: 0
630-> Hits: 4, Late: 0, Early: 0, Misses: 0
632-> Hits: 621, Late: 0, Early: 0, Misses: 0
633-> Hits: 160, Late: 0, Early: 0, Misses: 0
634-> Hits: 26, Late: 0, Early: 0, Misses: 0
636-> Hits: 490, Late: 0, Early: 0, Misses: 0
637-> Hits: 163, Late: 1, Early: 0, Misses: 0
63a-> Hits: 2581, Late: 136, Early: 0, Misses: 3
63b-> Hits: 47, Late: 0, Early: 0, Misses: 0
63d-> Hits: 621, Late: 0, Early: 0, Misses: 0
63f-> Hits: 1742, Late: 177, Early: 0, Misses: 181
642-> Hits: 70, Late: 21, Early: 0, Misses: 0
643-> Hits: 29, Late: 0, Early: 0, Misses: 0
644-> Hits: 3654, Late: 190, Early: 0, Misses: 0
645-> Hits: 47, Late: 0, Early: 0, Misses: 0
646-> Hits: 712, Late: 0, Early: 0, Misses: 9
647-> Hits: 37, Late: 0, Early: 0, Misses: 0
648-> Hits: 504, Late: 0, Early: 0, Misses: 0
64a-> Hits: 338, Late: 23, Early: 0, Misses: 0
64b-> Hits: 261, Late: 0, Early: 0, Misses: 0
64c-> Hits: 1052, Late: 135, Early: 0, Misses: 0
64e-> Hits: 5743, Late: 200, Early: 0, Misses: 0
64f-> Hits: 175, Late: 2, Early: 0, Misses: 0
652-> Hits: 1905, Late: 1, Early: 0, Misses: 0
653-> Hits: 686, Late: 0, Early: 0, Misses: 0
654-> Hits: 1139, Late: 6, Early: 0, Misses: 0
657-> Hits: 1526, Late: 801, Early: 0, Misses: 0
658-> Hits: 4025, Late: 1, Early: 0, Misses: 0
659-> Hits: 3844, Late: 0, Early: 0, Misses: 0
65a-> Hits: 184, Late: 0, Early: 0, Misses: 0
65b-> Hits: 119, Late: 234, Early: 0, Misses: 0
65c-> Hits: 894, Late: 213, Early: 0, Misses: 0
65d-> Hits: 1719, Late: 418, Early: 0, Misses: 0
65e-> Hits: 175, Late: 1, Early: 0, Misses: 8
65f-> Hits: 1879, Late: 12, Early: 0, Misses: 0
660-> Hits: 651, Late: 358, Early: 0, Misses: 2
664-> Hits: 893, Late: 232, Early: 0, Misses: 0
665-> Hits: 183, Late: 1, Early: 0, Misses: 0
667-> Hits: 0, Late: 1, Early: 0, Misses: 0
669-> Hits: 2484, Late: 1465, Early: 0, Misses: 8
66a-> Hits: 3126, Late: 0, Early: 0, Misses: 0
66b-> Hits: 440, Late: 324, Early: 0, Misses: 1
66c-> Hits: 27, Late: 58, Early: 0, Misses: 1
66d-> Hits: 834, Late: 0, Early: 0, Misses: 0
66e-> Hits: 1094, Late: 0, Early: 0, Misses: 0
670-> Hits: 1215, Late: 2, Early: 0, Misses: 0
671-> Hits: 2901, Late: 0, Early: 0, Misses: 0
672-> Hits: 415, Late: 349, Early: 0, Misses: 1
673-> Hits: 3921, Late: 0, Early: 0, Misses: 0
674-> Hits: 3559, Late: 614, Early: 0, Misses: 8
676-> Hits: 184, Late: 0, Early: 0, Misses: 0
677-> Hits: 1107, Late: 0, Early: 0, Misses: 0
678-> Hits: 1981, Late: 27, Early: 0, Misses: 0
67a-> Hits: 1328, Late: 0, Early: 0, Misses: 0
67c-> Hits: 230, Late: 0, Early: 0, Misses: 0
67f-> Hits: 2284, Late: 168, Early: 0, Misses: 14
680-> Hits: 4116, Late: 107, Early: 0, Misses: 0
681-> Hits: 3122, Late: 143, Early: 0, Misses: 0
682-> Hits: 1646, Late: 14, Early: 0, Misses: 0
683-> Hits: 2910, Late: 0, Early: 0, Misses: 0
684-> Hits: 1592, Late: 351, Early: 0, Misses: 0
686-> Hits: 895, Late: 0, Early: 0, Misses: 0
687-> Hits: 896, Late: 0, Early: 0, Misses: 0
688-> Hits: 360, Late: 0, Early: 0, Misses: 0
689-> Hits: 1714, Late: 0, Early: 0, Misses: 0
68a-> Hits: 1269, Late: 1, Early: 0, Misses: 1
68d-> Hits: 5, Late: 0, Early: 0, Misses: 0
68e-> Hits: 814, Late: 158, Early: 0, Misses: 19
690-> Hits: 1750, Late: 12, Early: 0, Misses: 0
691-> Hits: 57, Late: 224, Early: 0, Misses: 1
692-> Hits: 58026, Late: 2757, Early: 0, Misses: 28
693-> Hits: 1337, Late: 0, Early: 0, Misses: 0
694-> Hits: 51, Late: 231, Early: 0, Misses: 0
695-> Hits: 12, Late: 0, Early: 0, Misses: 0
697-> Hits: 62125, Late: 395, Early: 0, Misses: 5
698-> Hits: 1188, Late: 84, Early: 0, Misses: 0
699-> Hits: 93, Late: 90, Early: 0, Misses: 1
69b-> Hits: 1372, Late: 9, Early: 0, Misses: 0
69c-> Hits: 2804, Late: 0, Early: 0, Misses: 0
69d-> Hits: 65, Late: 111, Early: 0, Misses: 8
69e-> Hits: 1174, Late: 27, Early: 0, Misses: 0
69f-> Hits: 1976, Late: 10, Early: 0, Misses: 0
6a0-> Hits: 3802, Late: 130, Early: 0, Misses: 32
6a2-> Hits: 1982, Late: 0, Early: 0, Misses: 0
6a4-> Hits: 1193, Late: 294, Early: 0, Misses: 0
6a5-> Hits: 560, Late: 428, Early: 0, Misses: 3
6a6-> Hits: 0, Late: 0, Early: 0, Misses: 3
6a8-> Hits: 63, Late: 161, Early: 0, Misses: 0
6a9-> Hits: 233, Late: 0, Early: 0, Misses: 0
6aa-> Hits: 233, Late: 0, Early: 0, Misses: 0
6ab-> Hits: 9, Late: 175, Early: 0, Misses: 0
6ac-> Hits: 233, Late: 0, Early: 0, Misses: 0
6ad-> Hits: 66, Late: 1, Early: 0, Misses: 1
6ae-> Hits: 233, Late: 0, Early: 0, Misses: 0
6b0-> Hits: 233, Late: 0, Early: 0, Misses: 1
6b1-> Hits: 609, Late: 314, Early: 0, Misses: 0
6b2-> Hits: 59, Late: 2, Early: 0, Misses: 0
6b4-> Hits: 1224, Late: 0, Early: 0, Misses: 0
6b8-> Hits: 1078, Late: 0, Early: 0, Misses: 0
6b9-> Hits: 331, Late: 0, Early: 0, Misses: 0
6ba-> Hits: 702, Late: 0, Early: 0, Misses: 0
6bb-> Hits: 545, Late: 0, Early: 0, Misses: 0
6bc-> Hits: 10466, Late: 0, Early: 0, Misses: 0
6bd-> Hits: 12555, Late: 612, Early: 0, Misses: 0
6be-> Hits: 10481, Late: 0, Early: 0, Misses: 0
6bf-> Hits: 5104, Late: 628, Early: 0, Misses: 0
6c0-> Hits: 1352, Late: 0, Early: 0, Misses: 0
6c1-> Hits: 1840, Late: 0, Early: 0, Misses: 0
6c4-> Hits: 171, Late: 13, Early: 0, Misses: 0
6c5-> Hits: 1871, Late: 0, Early: 0, Misses: 0
6c6-> Hits: 1963, Late: 240, Early: 0, Misses: 0
6c7-> Hits: 993, Late: 0, Early: 0, Misses: 0
6c9-> Hits: 1, Late: 0, Early: 0, Misses: 1
6cb-> Hits: 322, Late: 0, Early: 0, Misses: 0
6cc-> Hits: 2051, Late: 8, Early: 0, Misses: 0
6ce-> Hits: 991, Late: 0, Early: 0, Misses: 0
6cf-> Hits: 3, Late: 0, Early: 0, Misses: 0
6d0-> Hits: 91, Late: 0, Early: 0, Misses: 0
6d3-> Hits: 2000, Late: 0, Early: 0, Misses: 0
6d6-> Hits: 991, Late: 0, Early: 0, Misses: 0
6d7-> Hits: 2738, Late: 2347, Early: 0, Misses: 0
6da-> Hits: 56, Late: 0, Early: 0, Misses: 0
6db-> Hits: 2929, Late: 0, Early: 0, Misses: 0
6dc-> Hits: 753, Late: 554, Early: 0, Misses: 0
6dd-> Hits: 1108, Late: 0, Early: 0, Misses: 0
6de-> Hits: 1011, Late: 0, Early: 0, Misses: 0
6df-> Hits: 233, Late: 0, Early: 0, Misses: 0
6e0-> Hits: 1106, Late: 0, Early: 0, Misses: 0
6e1-> Hits: 991, Late: 0, Early: 0, Misses: 0
6e3-> Hits: 991, Late: 0, Early: 0, Misses: 0
6e4-> Hits: 233, Late: 0, Early: 0, Misses: 0
6e5-> Hits: 1712, Late: 0, Early: 0, Misses: 1
6e6-> Hits: 1223, Late: 1, Early: 0, Misses: 0
6e8-> Hits: 233, Late: 0, Early: 0, Misses: 0
6ed-> Hits: 29, Late: 0, Early: 0, Misses: 0
6ee-> Hits: 1138, Late: 0, Early: 0, Misses: 0
6ef-> Hits: 6467, Late: 0, Early: 0, Misses: 0
6f0-> Hits: 56453, Late: 0, Early: 0, Misses: 0
6f2-> Hits: 1373, Late: 0, Early: 0, Misses: 0
6f3-> Hits: 4, Late: 0, Early: 0, Misses: 0
6f4-> Hits: 1344, Late: 0, Early: 0, Misses: 0
6f5-> Hits: 2, Late: 0, Early: 0, Misses: 0
6f6-> Hits: 1341, Late: 0, Early: 0, Misses: 0
6f7-> Hits: 890, Late: 0, Early: 0, Misses: 0
6f8-> Hits: 6375, Late: 0, Early: 0, Misses: 0
6f9-> Hits: 2449, Late: 0, Early: 0, Misses: 0
6fb-> Hits: 846, Late: 6, Early: 0, Misses: 0
6fd-> Hits: 233, Late: 0, Early: 0, Misses: 0
701-> Hits: 233, Late: 0, Early: 0, Misses: 0
702-> Hits: 1291, Late: 24, Early: 0, Misses: 1
703-> Hits: 231, Late: 0, Early: 0, Misses: 0
704-> Hits: 4806, Late: 35, Early: 0, Misses: 0
705-> Hits: 233, Late: 0, Early: 0, Misses: 0
706-> Hits: 2144, Late: 569, Early: 0, Misses: 17
708-> Hits: 1757, Late: 0, Early: 0, Misses: 0
709-> Hits: 516, Late: 0, Early: 0, Misses: 0
70a-> Hits: 7471, Late: 413, Early: 0, Misses: 160
70b-> Hits: 5798, Late: 0, Early: 0, Misses: 0
70c-> Hits: 280, Late: 0, Early: 0, Misses: 0
70d-> Hits: 5267, Late: 0, Early: 0, Misses: 0
70e-> Hits: 550, Late: 0, Early: 0, Misses: 0
70f-> Hits: 5034, Late: 0, Early: 0, Misses: 0
710-> Hits: 280, Late: 0, Early: 0, Misses: 0
711-> Hits: 5267, Late: 0, Early: 0, Misses: 0
712-> Hits: 4567, Late: 0, Early: 0, Misses: 0
713-> Hits: 8674, Late: 0, Early: 0, Misses: 0
715-> Hits: 2884, Late: 0, Early: 0, Misses: 0
717-> Hits: 1006, Late: 0, Early: 0, Misses: 0
71c-> Hits: 387, Late: 0, Early: 0, Misses: 0
71d-> Hits: 1113, Late: 1, Early: 0, Misses: 0
71e-> Hits: 1103, Late: 4, Early: 0, Misses: 1
71f-> Hits: 1402, Late: 0, Early: 0, Misses: 0
720-> Hits: 11126, Late: 2, Early: 0, Misses: 0
721-> Hits: 1621, Late: 424, Early: 0, Misses: 1
722-> Hits: 233, Late: 0, Early: 0, Misses: 0
723-> Hits: 988, Late: 0, Early: 0, Misses: 0
724-> Hits: 1095, Late: 0, Early: 0, Misses: 0
726-> Hits: 1215, Late: 0, Early: 0, Misses: 0
729-> Hits: 91, Late: 0, Early: 0, Misses: 0
72c-> Hits: 252, Late: 38, Early: 0, Misses: 1
72d-> Hits: 1310, Late: 98, Early: 0, Misses: 0
72e-> Hits: 161, Late: 0, Early: 0, Misses: 0
730-> Hits: 7256, Late: 288, Early: 0, Misses: 1
732-> Hits: 1108, Late: 0, Early: 0, Misses: 0
733-> Hits: 184, Late: 0, Early: 0, Misses: 0
736-> Hits: 1287, Late: 112, Early: 0, Misses: 0
737-> Hits: 1, Late: 0, Early: 0, Misses: 0
739-> Hits: 236, Late: 0, Early: 0, Misses: 0
73b-> Hits: 49, Late: 0, Early: 0, Misses: 0
73e-> Hits: 49, Late: 0, Early: 0, Misses: 0
73f-> Hits: 46, Late: 0, Early: 0, Misses: 0
740-> Hits: 723, Late: 0, Early: 0, Misses: 0
741-> Hits: 63, Late: 9, Early: 0, Misses: 0
742-> Hits: 25, Late: 0, Early: 0, Misses: 0
743-> Hits: 588, Late: 0, Early: 0, Misses: 0
744-> Hits: 147, Late: 0, Early: 0, Misses: 0
745-> Hits: 718, Late: 0, Early: 0, Misses: 0
746-> Hits: 332, Late: 82, Early: 0, Misses: 3
747-> Hits: 1022, Late: 0, Early: 0, Misses: 0
749-> Hits: 6165, Late: 992, Early: 0, Misses: 32
74a-> Hits: 1635, Late: 52, Early: 0, Misses: 9
74b-> Hits: 52, Late: 0, Early: 0, Misses: 0
74c-> Hits: 49, Late: 0, Early: 0, Misses: 0
74d-> Hits: 1359, Late: 0, Early: 0, Misses: 0
74e-> Hits: 1126, Late: 0, Early: 0, Misses: 0
74f-> Hits: 1108, Late: 0, Early: 0, Misses: 0
750-> Hits: 4652, Late: 0, Early: 0, Misses: 0
751-> Hits: 264, Late: 0, Early: 0, Misses: 0
752-> Hits: 1126, Late: 0, Early: 0, Misses: 0
754-> Hits: 4873, Late: 0, Early: 0, Misses: 0
755-> Hits: 4, Late: 45, Early: 0, Misses: 0
756-> Hits: 2418, Late: 0, Early: 0, Misses: 0
757-> Hits: 1129, Late: 0, Early: 0, Misses: 0
758-> Hits: 233, Late: 0, Early: 0, Misses: 0
759-> Hits: 1341, Late: 0, Early: 0, Misses: 0
75a-> Hits: 1108, Late: 0, Early: 0, Misses: 0
75b-> Hits: 304, Late: 19, Early: 0, Misses: 0
75d-> Hits: 233, Late: 0, Early: 0, Misses: 0
75e-> Hits: 232, Late: 0, Early: 0, Misses: 0
75f-> Hits: 233, Late: 0, Early: 0, Misses: 0
761-> Hits: 1340, Late: 1, Early: 0, Misses: 0
762-> Hits: 465, Late: 0, Early: 0, Misses: 0
764-> Hits: 71, Late: 0, Early: 0, Misses: 0
765-> Hits: 170, Late: 0, Early: 0, Misses: 0
767-> Hits: 1397, Late: 0, Early: 0, Misses: 1
76a-> Hits: 3724, Late: 0, Early: 0, Misses: 0
76b-> Hits: 1162, Late: 0, Early: 0, Misses: 1
76d-> Hits: 232, Late: 0, Early: 0, Misses: 0
770-> Hits: 3573, Late: 0, Early: 0, Misses: 0
773-> Hits: 109, Late: 7, Early: 0, Misses: 0
774-> Hits: 232, Late: 0, Early: 0, Misses: 0
775-> Hits: 908, Late: 200, Early: 0, Misses: 0
777-> Hits: 3078, Late: 0, Early: 0, Misses: 0
778-> Hits: 1154, Late: 0, Early: 0, Misses: 1
779-> Hits: 184, Late: 0, Early: 0, Misses: 0
77a-> Hits: 3210, Late: 0, Early: 0, Misses: 0
77b-> Hits: 2253, Late: 0, Early: 0, Misses: 0
77c-> Hits: 2094, Late: 0, Early: 0, Misses: 0
77e-> Hits: 3206, Late: 0, Early: 0, Misses: 0
780-> Hits: 2098, Late: 0, Early: 0, Misses: 0
782-> Hits: 2099, Late: 4, Early: 0, Misses: 0
783-> Hits: 1154, Late: 0, Early: 0, Misses: 1
784-> Hits: 2099, Late: 0, Early: 0, Misses: 0
785-> Hits: 2099, Late: 0, Early: 0, Misses: 0
787-> Hits: 12, Late: 0, Early: 0, Misses: 0
788-> Hits: 991, Late: 0, Early: 0, Misses: 0
78a-> Hits: 316, Late: 19, Early: 0, Misses: 0
78b-> Hits: 1108, Late: 0, Early: 0, Misses: 0
78e-> Hits: 232, Late: 0, Early: 0, Misses: 0
78f-> Hits: 995, Late: 0, Early: 0, Misses: 0
790-> Hits: 17950, Late: 0, Early: 0, Misses: 0
791-> Hits: 321, Late: 0, Early: 0, Misses: 1
792-> Hits: 990, Late: 1, Early: 0, Misses: 0
794-> Hits: 19522, Late: 215, Early: 0, Misses: 13
797-> Hits: 38, Late: 5, Early: 0, Misses: 0
798-> Hits: 953, Late: 0, Early: 0, Misses: 1
799-> Hits: 232, Late: 0, Early: 0, Misses: 0
79a-> Hits: 125, Late: 0, Early: 0, Misses: 0
79b-> Hits: 409, Late: 371, Early: 0, Misses: 2
79d-> Hits: 471, Late: 1, Early: 0, Misses: 0
79e-> Hits: 16, Late: 0, Early: 0, Misses: 0
79f-> Hits: 989, Late: 1, Early: 0, Misses: 1
7a0-> Hits: 232, Late: 0, Early: 0, Misses: 0
7a1-> Hits: 154, Late: 0, Early: 0, Misses: 0
7a4-> Hits: 506, Late: 3, Early: 0, Misses: 1
7a5-> Hits: 19959, Late: 18, Early: 0, Misses: 17
7a7-> Hits: 22, Late: 0, Early: 0, Misses: 0
7a8-> Hits: 991, Late: 0, Early: 0, Misses: 0
7a9-> Hits: 18133, Late: 663, Early: 0, Misses: 207
7ac-> Hits: 2840, Late: 8, Early: 0, Misses: 2
7b0-> Hits: 722, Late: 0, Early: 0, Misses: 0
7b1-> Hits: 80, Late: 0, Early: 0, Misses: 0
7b2-> Hits: 19013, Late: 9, Early: 0, Misses: 4
7b4-> Hits: 479, Late: 0, Early: 0, Misses: 0
7b5-> Hits: 19469, Late: 0, Early: 0, Misses: 0
7b8-> Hits: 124, Late: 0, Early: 0, Misses: 0
7b9-> Hits: 204, Late: 157, Early: 0, Misses: 0
7ba-> Hits: 22054, Late: 0, Early: 0, Misses: 0
7bb-> Hits: 924, Late: 103, Early: 0, Misses: 0
7bc-> Hits: 191, Late: 170, Early: 0, Misses: 0
7bd-> Hits: 210, Late: 0, Early: 0, Misses: 0
7bf-> Hits: 241, Late: 0, Early: 0, Misses: 0
7c0-> Hits: 89, Late: 9, Early: 0, Misses: 0
7c1-> Hits: 258, Late: 0, Early: 0, Misses: 0
7c4-> Hits: 776, Late: 104, Early: 0, Misses: 0
7c5-> Hits: 580, Late: 0, Early: 0, Misses: 0
7c7-> Hits: 345, Late: 0, Early: 0, Misses: 6
7c8-> Hits: 232, Late: 0, Early: 0, Misses: 0
7ca-> Hits: 4, Late: 0, Early: 0, Misses: 0
7cc-> Hits: 233, Late: 0, Early: 0, Misses: 0
7cd-> Hits: 666, Late: 0, Early: 0, Misses: 0
7d0-> Hits: 2126, Late: 0, Early: 0, Misses: 0
7d2-> Hits: 840, Late: 161, Early: 0, Misses: 107
7d8-> Hits: 162, Late: 0, Early: 0, Misses: 0
7da-> Hits: 1020, Late: 85, Early: 0, Misses: 2
7de-> Hits: 233, Late: 0, Early: 0, Misses: 0
7df-> Hits: 233, Late: 0, Early: 0, Misses: 0
7e0-> Hits: 1229, Late: 3, Early: 0, Misses: 0
7e1-> Hits: 233, Late: 0, Early: 0, Misses: 0
7e3-> Hits: 3790, Late: 0, Early: 0, Misses: 0
7e4-> Hits: 562, Late: 0, Early: 0, Misses: 1
7e5-> Hits: 466, Late: 0, Early: 0, Misses: 0
7e7-> Hits: 3796, Late: 0, Early: 0, Misses: 0
7e8-> Hits: 1806, Late: 0, Early: 0, Misses: 0
7eb-> Hits: 233, Late: 0, Early: 0, Misses: 0
7ec-> Hits: 822, Late: 164, Early: 0, Misses: 121
7ed-> Hits: 243, Late: 0, Early: 0, Misses: 0
7f0-> Hits: 232, Late: 0, Early: 0, Misses: 0
7f1-> Hits: 763, Late: 117, Early: 0, Misses: 0
7f4-> Hits: 709, Late: 174, Early: 0, Misses: 0
7f5-> Hits: 22, Late: 0, Early: 0, Misses: 0
7f7-> Hits: 851, Late: 0, Early: 0, Misses: 0
7f8-> Hits: 1087, Late: 16, Early: 0, Misses: 0
7f9-> Hits: 22492, Late: 216, Early: 0, Misses: 0
7fb-> Hits: 150, Late: 82, Early: 0, Misses: 0
7fc-> Hits: 1288, Late: 51, Early: 0, Misses: 2
7ff-> Hits: 232, Late: 0, Early: 0, Misses: 0
800-> Hits: 33, Late: 0, Early: 0, Misses: 0
804-> Hits: 1054, Late: 50, Early: 0, Misses: 4
806-> Hits: 70, Late: 0, Early: 0, Misses: 0
807-> Hits: 1345, Late: 0, Early: 0, Misses: 4
808-> Hits: 2, Late: 0, Early: 0, Misses: 0
80c-> Hits: 8965, Late: 4, Early: 0, Misses: 0
811-> Hits: 232, Late: 0, Early: 0, Misses: 0
814-> Hits: 233, Late: 0, Early: 0, Misses: 0
815-> Hits: 718, Late: 0, Early: 0, Misses: 0
817-> Hits: 233, Late: 0, Early: 0, Misses: 0
818-> Hits: 49, Late: 0, Early: 0, Misses: 0
819-> Hits: 232, Late: 0, Early: 0, Misses: 0
81b-> Hits: 115, Late: 0, Early: 0, Misses: 0
81d-> Hits: 588, Late: 1, Early: 0, Misses: 39
81e-> Hits: 1260, Late: 81, Early: 0, Misses: 0
81f-> Hits: 971, Late: 0, Early: 0, Misses: 1
820-> Hits: 8, Late: 0, Early: 0, Misses: 0
821-> Hits: 991, Late: 0, Early: 0, Misses: 0
823-> Hits: 1157, Late: 0, Early: 0, Misses: 0
824-> Hits: 232, Late: 0, Early: 0, Misses: 0
827-> Hits: 5, Late: 0, Early: 0, Misses: 0
82b-> Hits: 1108, Late: 1, Early: 0, Misses: 0
82c-> Hits: 991, Late: 0, Early: 0, Misses: 0
82d-> Hits: 25, Late: 0, Early: 0, Misses: 0
82f-> Hits: 841, Late: 0, Early: 0, Misses: 0
833-> Hits: 1123, Late: 0, Early: 0, Misses: 0
836-> Hits: 2793, Late: 0, Early: 0, Misses: 0
837-> Hits: 2642, Late: 0, Early: 0, Misses: 0
838-> Hits: 529, Late: 0, Early: 0, Misses: 0
83a-> Hits: 539, Late: 7, Early: 0, Misses: 5
83b-> Hits: 3540, Late: 13, Early: 0, Misses: 1
841-> Hits: 59, Late: 0, Early: 0, Misses: 0
846-> Hits: 991, Late: 0, Early: 0, Misses: 0
848-> Hits: 637, Late: 0, Early: 0, Misses: 0
84c-> Hits: 991, Late: 0, Early: 0, Misses: 0
84d-> Hits: 232, Late: 0, Early: 0, Misses: 0
84e-> Hits: 1108, Late: 0, Early: 0, Misses: 0
850-> Hits: 9, Late: 0, Early: 0, Misses: 0
851-> Hits: 991, Late: 0, Early: 0, Misses: 0
854-> Hits: 844, Late: 273, Early: 0, Misses: 0
857-> Hits: 215, Late: 0, Early: 0, Misses: 0
859-> Hits: 232, Late: 0, Early: 0, Misses: 0
860-> Hits: 464, Late: 0, Early: 0, Misses: 0
862-> Hits: 928, Late: 180, Early: 0, Misses: 0
864-> Hits: 612, Late: 531, Early: 0, Misses: 0
865-> Hits: 232, Late: 0, Early: 0, Misses: 0
867-> Hits: 923, Late: 0, Early: 0, Misses: 0
868-> Hits: 1111, Late: 0, Early: 0, Misses: 0
869-> Hits: 973, Late: 141, Early: 0, Misses: 0
86a-> Hits: 869, Late: 47, Early: 0, Misses: 8
86d-> Hits: 231, Late: 0, Early: 0, Misses: 1
86f-> Hits: 1570, Late: 100, Early: 0, Misses: 1
870-> Hits: 676, Late: 0, Early: 0, Misses: 0
871-> Hits: 1626, Late: 137, Early: 0, Misses: 0
874-> Hits: 232, Late: 0, Early: 0, Misses: 0
875-> Hits: 47, Late: 0, Early: 0, Misses: 0
876-> Hits: 30, Late: 0, Early: 0, Misses: 0
878-> Hits: 186, Late: 0, Early: 0, Misses: 0
879-> Hits: 3, Late: 0, Early: 0, Misses: 0
87d-> Hits: 230, Late: 0, Early: 0, Misses: 0
87e-> Hits: 923, Late: 0, Early: 0, Misses: 0
882-> Hits: 49, Late: 0, Early: 0, Misses: 0
887-> Hits: 308, Late: 0, Early: 0, Misses: 0
888-> Hits: 1991, Late: 0, Early: 0, Misses: 0
889-> Hits: 914, Late: 0, Early: 0, Misses: 9
88a-> Hits: 3046, Late: 0, Early: 0, Misses: 0
88b-> Hits: 2751, Late: 0, Early: 0, Misses: 0
88d-> Hits: 972, Late: 0, Early: 0, Misses: 0
88f-> Hits: 49, Late: 0, Early: 0, Misses: 0
890-> Hits: 237, Late: 0, Early: 0, Misses: 0
891-> Hits: 49, Late: 0, Early: 0, Misses: 0
893-> Hits: 49, Late: 0, Early: 0, Misses: 0
894-> Hits: 1021, Late: 0, Early: 0, Misses: 0
895-> Hits: 186, Late: 0, Early: 0, Misses: 0
896-> Hits: 875, Late: 0, Early: 0, Misses: 0
898-> Hits: 149, Late: 4, Early: 0, Misses: 0
89a-> Hits: 187, Late: 0, Early: 0, Misses: 0
89b-> Hits: 1352, Late: 155, Early: 0, Misses: 67
89c-> Hits: 563, Late: 0, Early: 0, Misses: 0
89d-> Hits: 52, Late: 0, Early: 0, Misses: 0
89f-> Hits: 1, Late: 0, Early: 0, Misses: 0
8a0-> Hits: 1529, Late: 606, Early: 0, Misses: 2
8a1-> Hits: 601, Late: 0, Early: 0, Misses: 0
8a2-> Hits: 1108, Late: 0, Early: 0, Misses: 0
8a3-> Hits: 9, Late: 0, Early: 0, Misses: 0
8a4-> Hits: 2551, Late: 357, Early: 0, Misses: 6
8a6-> Hits: 1108, Late: 0, Early: 0, Misses: 0
8a7-> Hits: 23, Late: 0, Early: 0, Misses: 0
8a8-> Hits: 1108, Late: 0, Early: 0, Misses: 0
8aa-> Hits: 1134, Late: 0, Early: 0, Misses: 0
8ab-> Hits: 1117, Late: 0, Early: 0, Misses: 0
8ad-> Hits: 2434, Late: 276, Early: 0, Misses: 31
8b0-> Hits: 574, Late: 221, Early: 0, Misses: 0
8b1-> Hits: 1721, Late: 0, Early: 0, Misses: 0
8b5-> Hits: 2121, Late: 328, Early: 0, Misses: 0
8b6-> Hits: 198, Late: 0, Early: 0, Misses: 0
8b7-> Hits: 9, Late: 0, Early: 0, Misses: 0
8b8-> Hits: 346, Late: 0, Early: 0, Misses: 0
8b9-> Hits: 875, Late: 0, Early: 0, Misses: 0
8bc-> Hits: 231, Late: 0, Early: 0, Misses: 0
8bd-> Hits: 1107, Late: 0, Early: 0, Misses: 0
8bf-> Hits: 232, Late: 0, Early: 0, Misses: 0
8c1-> Hits: 232, Late: 0, Early: 0, Misses: 0
8c3-> Hits: 235, Late: 0, Early: 0, Misses: 0
8c4-> Hits: 232, Late: 0, Early: 0, Misses: 0
8ca-> Hits: 875, Late: 0, Early: 0, Misses: 0
8cb-> Hits: 1, Late: 0, Early: 0, Misses: 0
8cd-> Hits: 280, Late: 0, Early: 0, Misses: 0
8cf-> Hits: 233, Late: 0, Early: 0, Misses: 0
8d0-> Hits: 126, Late: 0, Early: 0, Misses: 0
8d1-> Hits: 864, Late: 0, Early: 0, Misses: 0
8d2-> Hits: 4, Late: 0, Early: 0, Misses: 0
8d3-> Hits: 298, Late: 7, Early: 0, Misses: 0
8d4-> Hits: 1080, Late: 628, Early: 0, Misses: 0
8d7-> Hits: 164, Late: 0, Early: 0, Misses: 0
8d8-> Hits: 127, Late: 0, Early: 0, Misses: 0
8da-> Hits: 4, Late: 0, Early: 0, Misses: 0
8db-> Hits: 1574, Late: 0, Early: 0, Misses: 0
8dc-> Hits: 233, Late: 0, Early: 0, Misses: 0
8e0-> Hits: 1374, Late: 248, Early: 0, Misses: 0
8e2-> Hits: 764, Late: 0, Early: 0, Misses: 0
8e4-> Hits: 546, Late: 896, Early: 0, Misses: 37
8e5-> Hits: 179, Late: 0, Early: 0, Misses: 0
8e6-> Hits: 177, Late: 0, Early: 0, Misses: 0
8e8-> Hits: 188, Late: 0, Early: 0, Misses: 0
8e9-> Hits: 1051, Late: 0, Early: 0, Misses: 0
8ea-> Hits: 913, Late: 531, Early: 0, Misses: 30
8eb-> Hits: 1003, Late: 0, Early: 0, Misses: 0
8ec-> Hits: 416, Late: 0, Early: 0, Misses: 0
8ed-> Hits: 127, Late: 1, Early: 0, Misses: 0
8ee-> Hits: 1071, Late: 0, Early: 0, Misses: 0
8ef-> Hits: 196, Late: 0, Early: 0, Misses: 0
8f1-> Hits: 957, Late: 0, Early: 0, Misses: 0
8f2-> Hits: 875, Late: 0, Early: 0, Misses: 0
8f5-> Hits: 875, Late: 0, Early: 0, Misses: 0
8f6-> Hits: 85, Late: 53, Early: 0, Misses: 0
8f7-> Hits: 56, Late: 5, Early: 0, Misses: 0
8f8-> Hits: 232, Late: 0, Early: 0, Misses: 0
8f9-> Hits: 919, Late: 0, Early: 0, Misses: 4
8fa-> Hits: 505, Late: 234, Early: 0, Misses: 8
8fb-> Hits: 50, Late: 2, Early: 0, Misses: 0
8fc-> Hits: 24, Late: 0, Early: 0, Misses: 0
8fd-> Hits: 27, Late: 0, Early: 0, Misses: 0
8fe-> Hits: 551, Late: 240, Early: 0, Misses: 5
8ff-> Hits: 1134, Late: 0, Early: 0, Misses: 4
900-> Hits: 2898, Late: 0, Early: 0, Misses: 5
901-> Hits: 924, Late: 0, Early: 0, Misses: 0
902-> Hits: 500, Late: 239, Early: 0, Misses: 8
903-> Hits: 875, Late: 0, Early: 0, Misses: 0
904-> Hits: 143, Late: 0, Early: 0, Misses: 0
905-> Hits: 878, Late: 6, Early: 0, Misses: 0
907-> Hits: 926, Late: 0, Early: 0, Misses: 0
909-> Hits: 2326, Late: 187, Early: 0, Misses: 6
90a-> Hits: 875, Late: 0, Early: 0, Misses: 0
90b-> Hits: 5, Late: 228, Early: 0, Misses: 0
90c-> Hits: 144, Late: 56, Early: 0, Misses: 0
90d-> Hits: 130, Late: 0, Early: 0, Misses: 0
90f-> Hits: 747, Late: 0, Early: 0, Misses: 0
910-> Hits: 1313, Late: 54, Early: 0, Misses: 4
911-> Hits: 1163, Late: 154, Early: 0, Misses: 0
912-> Hits: 42, Late: 4, Early: 0, Misses: 0
913-> Hits: 747, Late: 0, Early: 0, Misses: 0
914-> Hits: 90, Late: 186, Early: 0, Misses: 0
915-> Hits: 233, Late: 0, Early: 0, Misses: 0
917-> Hits: 1294, Late: 276, Early: 0, Misses: 6
918-> Hits: 1108, Late: 0, Early: 0, Misses: 0
919-> Hits: 31, Late: 55, Early: 0, Misses: 0
91a-> Hits: 2295, Late: 0, Early: 0, Misses: 0
91b-> Hits: 812, Late: 0, Early: 0, Misses: 0
91d-> Hits: 880, Late: 0, Early: 0, Misses: 0
91f-> Hits: 1521, Late: 0, Early: 0, Misses: 0
921-> Hits: 880, Late: 0, Early: 0, Misses: 0
922-> Hits: 162, Late: 0, Early: 0, Misses: 0
923-> Hits: 523, Late: 5, Early: 0, Misses: 0
927-> Hits: 1155, Late: 0, Early: 0, Misses: 0
928-> Hits: 280, Late: 0, Early: 0, Misses: 0
929-> Hits: 195, Late: 0, Early: 0, Misses: 0
92b-> Hits: 3615, Late: 460, Early: 0, Misses: 0
92d-> Hits: 747, Late: 0, Early: 0, Misses: 0
92f-> Hits: 5513, Late: 1149, Early: 0, Misses: 251
930-> Hits: 798, Late: 0, Early: 0, Misses: 0
931-> Hits: 267, Late: 0, Early: 0, Misses: 0
932-> Hits: 43, Late: 63, Early: 0, Misses: 0
933-> Hits: 923, Late: 0, Early: 0, Misses: 0
934-> Hits: 496, Late: 0, Early: 0, Misses: 0
935-> Hits: 318, Late: 0, Early: 0, Misses: 0
936-> Hits: 1692, Late: 0, Early: 0, Misses: 0
937-> Hits: 1669, Late: 0, Early: 0, Misses: 1
938-> Hits: 281, Late: 0, Early: 0, Misses: 0
93a-> Hits: 214, Late: 34, Early: 0, Misses: 0
93b-> Hits: 232, Late: 0, Early: 0, Misses: 0
93c-> Hits: 232, Late: 0, Early: 0, Misses: 0
93d-> Hits: 13, Late: 220, Early: 0, Misses: 0
93e-> Hits: 988, Late: 107, Early: 0, Misses: 0
940-> Hits: 1055, Late: 221, Early: 0, Misses: 61
941-> Hits: 929, Late: 227, Early: 0, Misses: 0
942-> Hits: 232, Late: 0, Early: 0, Misses: 0
943-> Hits: 233, Late: 0, Early: 0, Misses: 0
944-> Hits: 567, Late: 232, Early: 0, Misses: 0
945-> Hits: 232, Late: 0, Early: 0, Misses: 0
947-> Hits: 233, Late: 0, Early: 0, Misses: 0
948-> Hits: 1112, Late: 40, Early: 0, Misses: 1
94c-> Hits: 94, Late: 4, Early: 0, Misses: 0
94d-> Hits: 929, Late: 0, Early: 0, Misses: 0
94f-> Hits: 922, Late: 0, Early: 0, Misses: 1
950-> Hits: 0, Late: 3, Early: 0, Misses: 0
952-> Hits: 1108, Late: 0, Early: 0, Misses: 0
953-> Hits: 951, Late: 23, Early: 0, Misses: 1
954-> Hits: 20, Late: 0, Early: 0, Misses: 0
955-> Hits: 20, Late: 0, Early: 0, Misses: 0
957-> Hits: 1262, Late: 0, Early: 0, Misses: 0
959-> Hits: 20, Late: 0, Early: 0, Misses: 0
95b-> Hits: 20, Late: 0, Early: 0, Misses: 0
95c-> Hits: 10, Late: 0, Early: 0, Misses: 0
95d-> Hits: 20, Late: 0, Early: 0, Misses: 0
95f-> Hits: 641, Late: 0, Early: 0, Misses: 0
960-> Hits: 1720, Late: 0, Early: 0, Misses: 1
961-> Hits: 11, Late: 0, Early: 0, Misses: 0
962-> Hits: 929, Late: 0, Early: 0, Misses: 0
963-> Hits: 1276, Late: 0, Early: 0, Misses: 0
965-> Hits: 929, Late: 0, Early: 0, Misses: 0
966-> Hits: 374, Late: 43, Early: 0, Misses: 12
967-> Hits: 1011, Late: 0, Early: 0, Misses: 0
96a-> Hits: 340, Late: 0, Early: 0, Misses: 0
96b-> Hits: 695, Late: 750, Early: 0, Misses: 3
96c-> Hits: 1574, Late: 0, Early: 0, Misses: 0
96d-> Hits: 1584, Late: 29, Early: 0, Misses: 0
96e-> Hits: 3938, Late: 19, Early: 0, Misses: 0
96f-> Hits: 1574, Late: 0, Early: 0, Misses: 0
970-> Hits: 258, Late: 0, Early: 0, Misses: 0
[...]
da3-> Hits: 1091, Late: 0, Early: 0, Misses: 0
da4-> Hits: 7632, Late: 0, Early: 0, Misses: 0
da6-> Hits: 1469, Late: 0, Early: 0, Misses: 0
da7-> Hits: 1, Late: 0, Early: 0, Misses: 0
da8-> Hits: 757, Late: 0, Early: 0, Misses: 0
da9-> Hits: 466, Late: 0, Early: 0, Misses: 0
daa-> Hits: 146, Late: 1, Early: 0, Misses: 0
dab-> Hits: 109, Late: 0, Early: 0, Misses: 0
dad-> Hits: 143, Late: 0, Early: 0, Misses: 0
daf-> Hits: 1, Late: 0, Early: 0, Misses: 0
db0-> Hits: 61211, Late: 41307, Early: 0, Misses: 5
db1-> Hits: 11, Late: 82, Early: 0, Misses: 0
db2-> Hits: 1147, Late: 0, Early: 0, Misses: 0
db4-> Hits: 1, Late: 0, Early: 0, Misses: 0
db5-> Hits: 45, Late: 0, Early: 0, Misses: 0
db6-> Hits: 1147, Late: 0, Early: 0, Misses: 0
db8-> Hits: 1, Late: 0, Early: 0, Misses: 0
db9-> Hits: 1199, Late: 0, Early: 0, Misses: 0
dba-> Hits: 186, Late: 0, Early: 0, Misses: 0
dbb-> Hits: 1108, Late: 0, Early: 0, Misses: 0
dbc-> Hits: 875, Late: 0, Early: 0, Misses: 0
dbd-> Hits: 875, Late: 0, Early: 0, Misses: 0
dbf-> Hits: 75704, Late: 298046, Early: 0, Misses: 84
dc0-> Hits: 199, Late: 1, Early: 0, Misses: 0
dc4-> Hits: 1379, Late: 0, Early: 0, Misses: 0
dc5-> Hits: 1146, Late: 0, Early: 0, Misses: 0
dc7-> Hits: 2069, Late: 0, Early: 0, Misses: 0
dc9-> Hits: 1146, Late: 0, Early: 0, Misses: 0
dcb-> Hits: 18510, Late: 89697, Early: 0, Misses: 0
dcc-> Hits: 233, Late: 0, Early: 0, Misses: 0
dcd-> Hits: 1146, Late: 0, Early: 0, Misses: 0
dce-> Hits: 1146, Late: 0, Early: 0, Misses: 0
dcf-> Hits: 212570, Late: 149154, Early: 0, Misses: 74
dd0-> Hits: 1400, Late: 0, Early: 0, Misses: 0
dd3-> Hits: 55796, Late: 59921, Early: 0, Misses: 1
dd6-> Hits: 137, Late: 0, Early: 0, Misses: 0
dd8-> Hits: 1099, Late: 0, Early: 0, Misses: 0
ddb-> Hits: 360, Late: 0, Early: 0, Misses: 0
dde-> Hits: 230, Late: 0, Early: 0, Misses: 0
de0-> Hits: 24, Late: 75, Early: 0, Misses: 0
de1-> Hits: 1108, Late: 0, Early: 0, Misses: 0
de2-> Hits: 119379, Late: 255496, Early: 0, Misses: 0
de3-> Hits: 55, Late: 181, Early: 0, Misses: 1
de4-> Hits: 73, Late: 49, Early: 0, Misses: 0
de7-> Hits: 357, Late: 0, Early: 0, Misses: 0
de8-> Hits: 210, Late: 0, Early: 0, Misses: 0
de9-> Hits: 1108, Late: 0, Early: 0, Misses: 0
dea-> Hits: 12, Late: 0, Early: 0, Misses: 0
deb-> Hits: 685, Late: 22, Early: 0, Misses: 1
ded-> Hits: 236, Late: 0, Early: 0, Misses: 0
dee-> Hits: 32597, Late: 93741, Early: 0, Misses: 0
def-> Hits: 342, Late: 0, Early: 0, Misses: 1
df0-> Hits: 8, Late: 1, Early: 0, Misses: 0
df1-> Hits: 1111, Late: 0, Early: 0, Misses: 0
df2-> Hits: 58269, Late: 297576, Early: 0, Misses: 0
df3-> Hits: 97, Late: 0, Early: 0, Misses: 0
df5-> Hits: 1205, Late: 15, Early: 0, Misses: 0
df6-> Hits: 320665, Late: 42, Early: 0, Misses: 0
df8-> Hits: 97, Late: 0, Early: 0, Misses: 0
df9-> Hits: 348, Late: 22, Early: 0, Misses: 0
dfa-> Hits: 924, Late: 2, Early: 0, Misses: 10
dfb-> Hits: 98, Late: 0, Early: 0, Misses: 0
dfc-> Hits: 336, Late: 0, Early: 0, Misses: 0
dfe-> Hits: 852, Late: 55, Early: 0, Misses: 1
e00-> Hits: 204, Late: 50, Early: 0, Misses: 0
e02-> Hits: 373, Late: 0, Early: 0, Misses: 0
e03-> Hits: 148, Late: 0, Early: 0, Misses: 3
e04-> Hits: 373919, Late: 127, Early: 0, Misses: 0
e06-> Hits: 464, Late: 0, Early: 0, Misses: 0
e08-> Hits: 318, Late: 150, Early: 0, Misses: 0
e09-> Hits: 109, Late: 1, Early: 0, Misses: 0
e0a-> Hits: 507, Late: 0, Early: 0, Misses: 0
e0b-> Hits: 165, Late: 7, Early: 0, Misses: 0
e0c-> Hits: 464, Late: 0, Early: 0, Misses: 0
e0d-> Hits: 177, Late: 6, Early: 0, Misses: 0
e10-> Hits: 12303, Late: 1, Early: 0, Misses: 0
e12-> Hits: 101, Late: 0, Early: 0, Misses: 0
e14-> Hits: 373881, Late: 0, Early: 0, Misses: 0
e15-> Hits: 1, Late: 0, Early: 0, Misses: 6
e16-> Hits: 97, Late: 0, Early: 0, Misses: 0
e18-> Hits: 284876, Late: 0, Early: 0, Misses: 0
e19-> Hits: 130, Late: 0, Early: 0, Misses: 0
e1a-> Hits: 256922, Late: 25290, Early: 0, Misses: 1
e1d-> Hits: 297953, Late: 188, Early: 0, Misses: 0
e1f-> Hits: 1510, Late: 0, Early: 0, Misses: 0
e20-> Hits: 464, Late: 0, Early: 0, Misses: 0
e21-> Hits: 7, Late: 39, Early: 0, Misses: 0
e22-> Hits: 464, Late: 0, Early: 0, Misses: 0
e23-> Hits: 1551, Late: 0, Early: 0, Misses: 0
e24-> Hits: 2399, Late: 0, Early: 0, Misses: 0
e25-> Hits: 38, Late: 192, Early: 0, Misses: 3
e27-> Hits: 373832, Late: 1, Early: 0, Misses: 0
e29-> Hits: 1429, Late: 199, Early: 0, Misses: 3
e2a-> Hits: 200, Late: 0, Early: 0, Misses: 0
e2d-> Hits: 65, Late: 0, Early: 0, Misses: 0
e2e-> Hits: 232, Late: 80, Early: 0, Misses: 0
e30-> Hits: 1532, Late: 156, Early: 0, Misses: 0
e31-> Hits: 1, Late: 0, Early: 0, Misses: 0
e33-> Hits: 310426, Late: 1, Early: 0, Misses: 0
e35-> Hits: 2, Late: 0, Early: 0, Misses: 0
e36-> Hits: 233, Late: 0, Early: 0, Misses: 0
e37-> Hits: 1275403, Late: 2262, Early: 0, Misses: 0
e3a-> Hits: 2023, Late: 0, Early: 0, Misses: 0
e3d-> Hits: 30, Late: 203, Early: 0, Misses: 0
e3e-> Hits: 952472, Late: 1, Early: 0, Misses: 0
e40-> Hits: 468, Late: 30, Early: 0, Misses: 0
e41-> Hits: 331, Late: 233, Early: 0, Misses: 0
e42-> Hits: 173, Late: 42, Early: 0, Misses: 0
e44-> Hits: 29, Late: 0, Early: 0, Misses: 0
e45-> Hits: 232, Late: 0, Early: 0, Misses: 0
e47-> Hits: 34, Late: 196, Early: 0, Misses: 3
e48-> Hits: 574, Late: 233, Early: 0, Misses: 0
e49-> Hits: 232, Late: 0, Early: 0, Misses: 0
e4c-> Hits: 217741, Late: 1, Early: 0, Misses: 0
e4e-> Hits: 1107, Late: 0, Early: 0, Misses: 0
e50-> Hits: 232, Late: 0, Early: 0, Misses: 0
e54-> Hits: 1875, Late: 175, Early: 0, Misses: 7
e58-> Hits: 163, Late: 0, Early: 0, Misses: 0
e59-> Hits: 1280, Late: 3, Early: 0, Misses: 0
e5b-> Hits: 1103, Late: 0, Early: 0, Misses: 0
e5d-> Hits: 882, Late: 327, Early: 0, Misses: 0
e5e-> Hits: 1088, Late: 0, Early: 0, Misses: 0
e5f-> Hits: 11, Late: 0, Early: 0, Misses: 0
e60-> Hits: 374750, Late: 27, Early: 0, Misses: 4
e61-> Hits: 73, Late: 0, Early: 0, Misses: 160
e62-> Hits: 2997, Late: 0, Early: 0, Misses: 5
e64-> Hits: 1371, Late: 0, Early: 0, Misses: 0
e66-> Hits: 99, Late: 0, Early: 0, Misses: 0
e68-> Hits: 372054, Late: 0, Early: 0, Misses: 0
e69-> Hits: 3081, Late: 49, Early: 0, Misses: 4
e6a-> Hits: 68, Late: 0, Early: 0, Misses: 0
e6b-> Hits: 571, Late: 791, Early: 0, Misses: 0
e6c-> Hits: 3308, Late: 54, Early: 0, Misses: 0
e6d-> Hits: 1107, Late: 0, Early: 0, Misses: 0
e6f-> Hits: 374824, Late: 1, Early: 0, Misses: 0
e70-> Hits: 232, Late: 0, Early: 0, Misses: 0
e71-> Hits: 2952, Late: 1, Early: 0, Misses: 0
e73-> Hits: 374707, Late: 2, Early: 0, Misses: 6
e74-> Hits: 917, Late: 4, Early: 0, Misses: 2
e75-> Hits: 1108, Late: 0, Early: 0, Misses: 0
e76-> Hits: 1108, Late: 0, Early: 0, Misses: 0
e77-> Hits: 48, Late: 0, Early: 0, Misses: 0
e78-> Hits: 2929, Late: 0, Early: 0, Misses: 0
e79-> Hits: 8473, Late: 0, Early: 0, Misses: 0
e7a-> Hits: 12, Late: 0, Early: 0, Misses: 0
e7d-> Hits: 981, Late: 0, Early: 0, Misses: 0
e7e-> Hits: 1106, Late: 0, Early: 0, Misses: 0
e7f-> Hits: 2078, Late: 181, Early: 0, Misses: 0
e80-> Hits: 1671, Late: 0, Early: 0, Misses: 0
e82-> Hits: 1107, Late: 0, Early: 0, Misses: 0
e83-> Hits: 63, Late: 170, Early: 0, Misses: 0
e84-> Hits: 2215, Late: 0, Early: 0, Misses: 0
e85-> Hits: 581, Late: 0, Early: 0, Misses: 0
e86-> Hits: 3079, Late: 54, Early: 0, Misses: 0
e87-> Hits: 1641, Late: 30, Early: 0, Misses: 0
e8b-> Hits: 923, Late: 0, Early: 0, Misses: 0
e8c-> Hits: 334, Late: 55, Early: 0, Misses: 0
e8e-> Hits: 764, Late: 112, Early: 0, Misses: 0
e90-> Hits: 747, Late: 0, Early: 0, Misses: 0
e92-> Hits: 1, Late: 0, Early: 0, Misses: 0
e93-> Hits: 2, Late: 0, Early: 0, Misses: 0
e96-> Hits: 923, Late: 0, Early: 0, Misses: 0
e97-> Hits: 262, Late: 0, Early: 0, Misses: 0
e98-> Hits: 1193, Late: 0, Early: 0, Misses: 0
e9a-> Hits: 232, Late: 0, Early: 0, Misses: 0
e9c-> Hits: 2196, Late: 59, Early: 0, Misses: 3
ea3-> Hits: 233, Late: 0, Early: 0, Misses: 0
ea4-> Hits: 40, Late: 1, Early: 0, Misses: 192
ea5-> Hits: 340, Late: 0, Early: 0, Misses: 0
ea6-> Hits: 233, Late: 0, Early: 0, Misses: 0
ea7-> Hits: 1, Late: 0, Early: 0, Misses: 0
ea8-> Hits: 234, Late: 0, Early: 0, Misses: 0
ea9-> Hits: 2075, Late: 404, Early: 0, Misses: 115
eaa-> Hits: 234, Late: 0, Early: 0, Misses: 0
eac-> Hits: 1, Late: 0, Early: 0, Misses: 0
eaf-> Hits: 233, Late: 0, Early: 0, Misses: 0
eb0-> Hits: 1156, Late: 0, Early: 0, Misses: 0
eb1-> Hits: 233, Late: 0, Early: 0, Misses: 0
eb2-> Hits: 233, Late: 0, Early: 0, Misses: 0
eb3-> Hits: 340, Late: 0, Early: 0, Misses: 0
eb4-> Hits: 233, Late: 0, Early: 0, Misses: 0
eb5-> Hits: 23, Late: 209, Early: 0, Misses: 0
eb8-> Hits: 564, Late: 232, Early: 0, Misses: 0
ebb-> Hits: 5, Late: 228, Early: 0, Misses: 0
ebc-> Hits: 17, Late: 0, Early: 0, Misses: 0
ebd-> Hits: 923, Late: 0, Early: 0, Misses: 0
ebe-> Hits: 564, Late: 0, Early: 0, Misses: 0
ebf-> Hits: 202, Late: 0, Early: 0, Misses: 0
ec0-> Hits: 923, Late: 0, Early: 0, Misses: 0
ec2-> Hits: 129, Late: 46, Early: 0, Misses: 58
ec4-> Hits: 1166, Late: 0, Early: 0, Misses: 0
ec5-> Hits: 55, Late: 1, Early: 0, Misses: 191
ec7-> Hits: 233, Late: 0, Early: 0, Misses: 0
ec8-> Hits: 13, Late: 220, Early: 0, Misses: 0
ec9-> Hits: 515, Late: 0, Early: 0, Misses: 0
ecb-> Hits: 233, Late: 0, Early: 0, Misses: 0
ecd-> Hits: 942, Late: 0, Early: 0, Misses: 0
ece-> Hits: 1139, Late: 0, Early: 0, Misses: 0
ecf-> Hits: 793, Late: 11, Early: 0, Misses: 8
ed0-> Hits: 11259, Late: 1022, Early: 0, Misses: 179
ed2-> Hits: 1072, Late: 14, Early: 0, Misses: 0
ed3-> Hits: 1205, Late: 0, Early: 0, Misses: 0
ed4-> Hits: 15914, Late: 2899, Early: 0, Misses: 210
ed6-> Hits: 13, Late: 220, Early: 0, Misses: 0
eda-> Hits: 232, Late: 0, Early: 0, Misses: 0
edb-> Hits: 299, Late: 0, Early: 0, Misses: 0
edd-> Hits: 329, Late: 0, Early: 0, Misses: 0
edf-> Hits: 232, Late: 0, Early: 0, Misses: 0
ee0-> Hits: 411, Late: 0, Early: 0, Misses: 0
ee1-> Hits: 257, Late: 0, Early: 0, Misses: 0
ee2-> Hits: 232, Late: 0, Early: 0, Misses: 0
ee3-> Hits: 1990, Late: 46, Early: 0, Misses: 11
ee4-> Hits: 232, Late: 0, Early: 0, Misses: 0
ee5-> Hits: 282, Late: 0, Early: 0, Misses: 0
ee7-> Hits: 15689, Late: 2931, Early: 0, Misses: 442
ee8-> Hits: 232, Late: 0, Early: 0, Misses: 0
ee9-> Hits: 211, Late: 3, Early: 0, Misses: 0
eea-> Hits: 4, Late: 0, Early: 0, Misses: 0
eeb-> Hits: 6084, Late: 1094, Early: 0, Misses: 145
eed-> Hits: 290, Late: 0, Early: 0, Misses: 0
eef-> Hits: 16676, Late: 1861, Early: 0, Misses: 393
ef0-> Hits: 482, Late: 1, Early: 0, Misses: 0
ef2-> Hits: 232, Late: 0, Early: 0, Misses: 0
ef3-> Hits: 16075, Late: 2990, Early: 0, Misses: 164
ef4-> Hits: 10, Late: 223, Early: 0, Misses: 0
ef5-> Hits: 439, Late: 0, Early: 0, Misses: 0
ef7-> Hits: 232, Late: 0, Early: 0, Misses: 0
ef9-> Hits: 326, Late: 0, Early: 0, Misses: 0
efa-> Hits: 551, Late: 0, Early: 0, Misses: 0
efb-> Hits: 232, Late: 0, Early: 0, Misses: 0
efc-> Hits: 232, Late: 0, Early: 0, Misses: 0
efd-> Hits: 45, Late: 0, Early: 0, Misses: 0
efe-> Hits: 1924, Late: 5, Early: 0, Misses: 0
f00-> Hits: 1261, Late: 0, Early: 0, Misses: 0
f01-> Hits: 91, Late: 49, Early: 0, Misses: 5
f02-> Hits: 1300, Late: 0, Early: 0, Misses: 0
f03-> Hits: 81, Late: 0, Early: 0, Misses: 0
f06-> Hits: 746, Late: 1, Early: 0, Misses: 0
f08-> Hits: 581, Late: 0, Early: 0, Misses: 0
f09-> Hits: 31, Late: 0, Early: 0, Misses: 0
f0a-> Hits: 233, Late: 0, Early: 0, Misses: 0
f0d-> Hits: 150, Late: 0, Early: 0, Misses: 0
f0f-> Hits: 975, Late: 5, Early: 0, Misses: 0
f11-> Hits: 149, Late: 0, Early: 0, Misses: 0
f14-> Hits: 584, Late: 0, Early: 0, Misses: 0
f15-> Hits: 897, Late: 205, Early: 0, Misses: 1
f16-> Hits: 233, Late: 0, Early: 0, Misses: 0
f17-> Hits: 591, Late: 0, Early: 0, Misses: 0
f19-> Hits: 734, Late: 0, Early: 0, Misses: 0
f1a-> Hits: 38, Late: 3, Early: 0, Misses: 0
f1b-> Hits: 766, Late: 0, Early: 0, Misses: 0
f1c-> Hits: 747, Late: 0, Early: 0, Misses: 0
f1d-> Hits: 824, Late: 0, Early: 0, Misses: 0
f26-> Hits: 614, Late: 0, Early: 0, Misses: 0
f27-> Hits: 33, Late: 6, Early: 0, Misses: 0
f2a-> Hits: 3, Late: 0, Early: 0, Misses: 0
f2e-> Hits: 12, Late: 221, Early: 0, Misses: 0
f32-> Hits: 233, Late: 0, Early: 0, Misses: 0
f34-> Hits: 9, Late: 3, Early: 0, Misses: 0
f40-> Hits: 233, Late: 0, Early: 0, Misses: 0
f50-> Hits: 32, Late: 3, Early: 0, Misses: 0
f53-> Hits: 1, Late: 232, Early: 0, Misses: 0
f54-> Hits: 21, Late: 211, Early: 0, Misses: 0
f57-> Hits: 747, Late: 0, Early: 0, Misses: 0
f58-> Hits: 17, Late: 0, Early: 0, Misses: 0
f5d-> Hits: 196, Late: 36, Early: 0, Misses: 0
f60-> Hits: 465, Late: 0, Early: 0, Misses: 0
f61-> Hits: 674, Late: 232, Early: 0, Misses: 0
f64-> Hits: 1069, Late: 270, Early: 0, Misses: 1
f68-> Hits: 253, Late: 124, Early: 0, Misses: 0
f6b-> Hits: 1106, Late: 40, Early: 0, Misses: 0
f6c-> Hits: 167, Late: 0, Early: 0, Misses: 0
f70-> Hits: 9166, Late: 1205, Early: 0, Misses: 25
f73-> Hits: 181, Late: 51, Early: 0, Misses: 0
f74-> Hits: 986, Late: 159, Early: 0, Misses: 1
f76-> Hits: 747, Late: 0, Early: 0, Misses: 0
f78-> Hits: 2807, Late: 166, Early: 0, Misses: 1
f79-> Hits: 232, Late: 0, Early: 0, Misses: 0
f7b-> Hits: 9171, Late: 81, Early: 0, Misses: 3
f7d-> Hits: 117, Late: 0, Early: 0, Misses: 0
f7e-> Hits: 575, Late: 0, Early: 0, Misses: 0
f7f-> Hits: 5295, Late: 274, Early: 0, Misses: 5
f81-> Hits: 1165, Late: 85, Early: 0, Misses: 0
f82-> Hits: 2518, Late: 211, Early: 0, Misses: 1
f83-> Hits: 16080, Late: 2949, Early: 0, Misses: 607
f85-> Hits: 1071, Late: 0, Early: 0, Misses: 0
f87-> Hits: 1095, Late: 0, Early: 0, Misses: 0
f88-> Hits: 1100, Late: 0, Early: 0, Misses: 0
f8d-> Hits: 14949, Late: 1970, Early: 0, Misses: 372
f90-> Hits: 713, Late: 24, Early: 0, Misses: 0
f93-> Hits: 2026, Late: 0, Early: 0, Misses: 0
f95-> Hits: 232, Late: 0, Early: 0, Misses: 0
f97-> Hits: 633, Late: 3, Early: 0, Misses: 0
f9c-> Hits: 2488, Late: 227, Early: 0, Misses: 15
f9d-> Hits: 31, Late: 20, Early: 0, Misses: 0
f9e-> Hits: 10626, Late: 277, Early: 0, Misses: 2
fa0-> Hits: 293, Late: 0, Early: 0, Misses: 0
fa1-> Hits: 827, Late: 316, Early: 0, Misses: 3
fa4-> Hits: 1117, Late: 337, Early: 0, Misses: 4
fa8-> Hits: 1375, Late: 38, Early: 0, Misses: 0
fab-> Hits: 8, Late: 0, Early: 0, Misses: 0
fac-> Hits: 748, Late: 0, Early: 0, Misses: 0
faf-> Hits: 1106, Late: 0, Early: 0, Misses: 0
fb0-> Hits: 2997, Late: 506, Early: 0, Misses: 0
fb2-> Hits: 3051, Late: 0, Early: 0, Misses: 0
fb3-> Hits: 3712, Late: 0, Early: 0, Misses: 0
fb4-> Hits: 2761, Late: 0, Early: 0, Misses: 0
fb5-> Hits: 9529, Late: 2, Early: 0, Misses: 0
fb9-> Hits: 254, Late: 19, Early: 0, Misses: 0
fba-> Hits: 6, Late: 0, Early: 0, Misses: 0
fbb-> Hits: 1126, Late: 0, Early: 0, Misses: 0
fbc-> Hits: 232, Late: 0, Early: 0, Misses: 0
fbd-> Hits: 257, Late: 0, Early: 0, Misses: 0
fbf-> Hits: 1046, Late: 512, Early: 0, Misses: 0
fc1-> Hits: 232, Late: 0, Early: 0, Misses: 0
fc2-> Hits: 747, Late: 0, Early: 0, Misses: 0
fc3-> Hits: 990, Late: 95, Early: 0, Misses: 0
fc5-> Hits: 232, Late: 0, Early: 0, Misses: 0
fc7-> Hits: 5754, Late: 2176, Early: 0, Misses: 22
fc8-> Hits: 1126, Late: 0, Early: 0, Misses: 0
fcc-> Hits: 1034, Late: 0, Early: 0, Misses: 0
fce-> Hits: 6886, Late: 208, Early: 0, Misses: 5
fd2-> Hits: 763, Late: 488, Early: 0, Misses: 0
fd3-> Hits: 1524, Late: 0, Early: 0, Misses: 0
fd5-> Hits: 435, Late: 0, Early: 0, Misses: 0
fd6-> Hits: 457, Late: 0, Early: 0, Misses: 0
fd7-> Hits: 637, Late: 0, Early: 0, Misses: 0
fd8-> Hits: 1094, Late: 0, Early: 0, Misses: 0
fd9-> Hits: 398, Late: 0, Early: 0, Misses: 0
fda-> Hits: 7501, Late: 0, Early: 0, Misses: 0
fdb-> Hits: 398, Late: 0, Early: 0, Misses: 0
fdc-> Hits: 1440, Late: 0, Early: 0, Misses: 0
fdf-> Hits: 11, Late: 0, Early: 0, Misses: 0
fe0-> Hits: 1988, Late: 0, Early: 0, Misses: 0
fe4-> Hits: 875, Late: 0, Early: 0, Misses: 5
fe7-> Hits: 1108, Late: 0, Early: 0, Misses: 0
fe8-> Hits: 7, Late: 0, Early: 0, Misses: 0
fe9-> Hits: 3, Late: 0, Early: 0, Misses: 4
feb-> Hits: 18, Late: 0, Early: 0, Misses: 0
fec-> Hits: 115, Late: 3, Early: 0, Misses: 0
fed-> Hits: 7, Late: 0, Early: 0, Misses: 0
fee-> Hits: 16, Late: 0, Early: 0, Misses: 0
fef-> Hits: 7, Late: 0, Early: 0, Misses: 0
ff0-> Hits: 9219, Late: 319, Early: 0, Misses: 0
ff1-> Hits: 733, Late: 0, Early: 0, Misses: 2
ff2-> Hits: 7, Late: 0, Early: 0, Misses: 0
ff3-> Hits: 7, Late: 0, Early: 0, Misses: 0
ff5-> Hits: 338, Late: 96, Early: 0, Misses: 0
ff7-> Hits: 52, Late: 0, Early: 0, Misses: 0
ff8-> Hits: 875, Late: 5, Early: 0, Misses: 0
ff9-> Hits: 495, Late: 467, Early: 0, Misses: 0
ffd-> Hits: 290, Late: 786, Early: 0, Misses: 0
Total misses (from ip) 2349414
Total accesses (misses) 18717585 2349414
Pref: Addr 0 IP 0 Current 0
 All Calls: 4712081
 Critical Calls: 4712081
------------------
Depth Distribution
------------------
depth 0: 0
depth 1: 1000266
depth 2: 18271
depth 3: 4471
depth 4: 3074
depth 5: 2450
depth 6: 2109
depth 7: 1638
depth 8: 1081
depth 9: 573
depth 10: 143
depth 11: 31
depth 12: 22
depth 13: 7
depth 14: 0
depth 15: 0
depth 16: 0
depth 17: 0
depth 18: 0
depth 19: 0
depth 20: 0
depth 21: 0
depth 22: 0
depth 23: 0
depth 24: 0
depth 25: 0
depth 26: 0
depth 27: 0
depth 28: 0
depth 29: 0
Total: 1034136
-----------------------------
-----------------------------
	Captured at Filter
-----------------------------
depth 0: 0
depth 1: 1793
depth 2: 33
depth 3: 3
depth 4: 3
depth 5: 3
depth 6: 3
depth 7: 2
depth 8: 2
depth 9: 0
depth 10: 0
depth 11: 0
depth 12: 0
depth 13: 0
depth 14: 0
depth 15: 0
depth 16: 0
depth 17: 0
depth 18: 0
depth 19: 0
depth 20: 0
depth 21: 0
depth 22: 0
depth 23: 0
depth 24: 0
depth 25: 0
depth 26: 0
depth 27: 0
depth 28: 0
depth 29: 0
-----------------------------
-----------------------------
		Lost at Page
-----------------------------
depth 0: 0
depth 1: 20467
depth 2: 522
depth 3: 249
depth 4: 221
depth 5: 227
depth 6: 253
depth 7: 248
depth 8: 195
depth 9: 124
depth 10: 49
depth 11: 19
depth 12: 8
depth 13: 2
depth 14: 0
depth 15: 0
depth 16: 0
depth 17: 0
depth 18: 0
depth 19: 0
depth 20: 0
depth 21: 0
depth 22: 0
depth 23: 0
depth 24: 0
depth 25: 0
depth 26: 0
depth 27: 0
depth 28: 0
depth 29: 0
-----------------------------
-----------------------------
	Lost due to PQ Size
-----------------------------
25
-----------------------------
ST read accesses: 2071294
ST write accesses: 279222
PT read accesses: 23058401
PT write accesses: 2765076
FILTER read accesses: 4950491
FILTER write accesses: 2321773
GHR read accesses: 2328865
GHR write accesses: 8567
GHR counter read accesses: 15370032
GHR counter write accesses: 2352411
ST tag read accesses: 1046413584
ST tag write accesses: 81963051

DRAM Statistics
 CHANNEL 0
 RQ ROW_BUFFER_HIT:    1093086  ROW_BUFFER_MISS:     561908
 DBUS_CONGESTED:        313
 WQ ROW_BUFFER_HIT:        776  ROW_BUFFER_MISS:      12917  FULL:          0

 AVG_CONGESTED_CYCLE: 4
 All warmup complete: 2
Channel 0 Bank busy for read cycles: 0
Channel 0 Bank busy for write cycles: 0
Channel 0
Rank 0
0banks busy for read cycles: 83594844
0banks busy for write cycles: 12130
1banks busy for read cycles: 28833236
1banks busy for write cycles: 2098596
2banks busy for read cycles: 16857201
2banks busy for write cycles: 185894
3banks busy for read cycles: 10440453
3banks busy for write cycles: 25203
4banks busy for read cycles: 6149538
4banks busy for write cycles: 4932
5banks busy for read cycles: 2754808
5banks busy for write cycles: 719
6banks busy for read cycles: 858005
6banks busy for write cycles: 959
7banks busy for read cycles: 173412
7banks busy for write cycles: 521
8banks busy for read cycles: 42884
8banks busy for write cycles: 143

CPU 0 Branch Prediction Accuracy: 94.9771% MPKI: 13.0224 Average ROB Occupancy at Mispredict: 36.8735
Branch types
NOT_BRANCH: 37037113 74.0742%
BRANCH_DIRECT_JUMP: 125745 0.25149%
BRANCH_INDIRECT: 22046 0.044092%
BRANCH_CONDITIONAL: 11639280 23.2786%
BRANCH_DIRECT_CALL: 323608 0.647216%
BRANCH_INDIRECT_CALL: 264324 0.528648%
BRANCH_RETURN: 587932 1.17586%
BRANCH_OTHER: 0 0%

DRAM PAGES: 1048576
Allocated PAGES: 11043
