Initialize SIGNATURE TABLE
ST_SET: 1
ST_WAY: 256
ST_TAG_BIT: 16
ST_TAG_MASK: ffff

Initialize PATTERN TABLE
PT_SET: 512
PT_WAY: 4
SIG_DELTA_BIT: 7
C_SIG_BIT: 4
C_DELTA_BIT: 4

Initialize PREFETCH FILTER
FILTER_SET: 1024

*** ChampSim Multicore Out-of-Order Simulator ***

Warmup Instructions: 50000000
Simulation Instructions: 50000000
Number of CPUs: 1
LLC sets: 2048
LLC ways: 16
Off-chip DRAM Size: 4096 MB Channels: 1 Width: 64-bit Data Rate: 6400 MT/s
CPU 0 runs ./tracer/traces/628.pop2_s-17B.champsimtrace.xz
.xz
CPU 0 Bimodal branch predictor
BTB has LRU replacement policy
ITLB has LRU replacement policy
DTLB has LRU replacement policy
STLB has LRU replacement policy
L1I has LRU replacement policy
CPU 0 L1D Berti prefetcher
L1D has LRU replacement policy
ST_WAYS: 256
PT_SETS: 512
Initialize SRRIP state for L2C
Heartbeat CPU 0 instructions: 10000003 cycles: 2998066 heartbeat IPC: 3.33548 cumulative IPC: 3.33548 (Simulation time: 0 hr 0 min 33 sec) 
Heartbeat CPU 0 instructions: 20000001 cycles: 5996307 heartbeat IPC: 3.33529 cumulative IPC: 3.33539 (Simulation time: 0 hr 1 min 22 sec) 
Heartbeat CPU 0 instructions: 30000003 cycles: 8994659 heartbeat IPC: 3.33517 cumulative IPC: 3.33531 (Simulation time: 0 hr 2 min 15 sec) 
Heartbeat CPU 0 instructions: 40000003 cycles: 11992914 heartbeat IPC: 3.33527 cumulative IPC: 3.3353 (Simulation time: 0 hr 3 min 7 sec) 
Heartbeat CPU 0 instructions: 50000002 cycles: 14993100 heartbeat IPC: 3.33313 cumulative IPC: 3.33487 (Simulation time: 0 hr 4 min 1 sec) 

Warmup complete CPU 0 instructions: 50000002 cycles: 14993100 (Simulation time: 0 hr 4 min 1 sec) 

Heartbeat CPU 0 instructions: 60000000 cycles: 27594193 heartbeat IPC: 0.793582 cumulative IPC: 0.793582 (Simulation time: 0 hr 5 min 30 sec) 
Heartbeat CPU 0 instructions: 70000002 cycles: 40039155 heartbeat IPC: 0.803538 cumulative IPC: 0.798529 (Simulation time: 0 hr 7 min 3 sec) 
Heartbeat CPU 0 instructions: 80000000 cycles: 52333961 heartbeat IPC: 0.813351 cumulative IPC: 0.803409 (Simulation time: 0 hr 8 min 34 sec) 
Heartbeat CPU 0 instructions: 90000003 cycles: 66492677 heartbeat IPC: 0.706279 cumulative IPC: 0.776705 (Simulation time: 0 hr 10 min 11 sec) 
Heartbeat CPU 0 instructions: 100000001 cycles: 78795663 heartbeat IPC: 0.812811 cumulative IPC: 0.783668 (Simulation time: 0 hr 11 min 51 sec) 
Finished CPU 0 instructions: 50000003 cycles: 63802569 cumulative IPC: 0.783668 (Simulation time: 0 hr 11 min 51 sec) 

ChampSim completed all CPUs

Region of Interest Statistics

CPU 0 cumulative IPC: 0.783668 instructions: 50000003 cycles: 63802569
ITLB TOTAL     ACCESS:    8482313  HIT:    8480961  MISS:       1352  HIT %:    99.9841  MISS %:   0.015939   MPKI: 0.02704
ITLB LOAD TRANSLATION ACCESS:    8482313  HIT:    8480961  MISS:       1352  HIT %:    99.9841  MISS %:   0.015939   MPKI: 0.02704
ITLB PREFETCH  REQUESTED:          0  ISSUED:          0  USEFUL:          0  USELESS:          0
ITLB USEFUL LOAD PREFETCHES:          0 PREFETCH ISSUED TO LOWER LEVEL:          0  ACCURACY: -nan
ITLB TIMELY PREFETCHES:          0 LATE PREFETCHES: 0 DROPPED PREFETCHES: 0
ITLB PREFETCHES SAME FILL-ORIGIN LEVEL: 0 DIFFERENT FILL-ORIGIN LEVEL: 0
ITLB AVERAGE MISS LATENCY: 14.4822 cycles
ITLB RQ	ACCESS:    9647326	FORWARD:          0	MERGED:    1164608	TO_CACHE:    8482718

DTLB TOTAL     ACCESS:   10643730  HIT:   10615964  MISS:      27766  HIT %:    99.7391  MISS %:   0.260867   MPKI: 0.55532
DTLB LOAD TRANSLATION ACCESS:   10643730  HIT:   10615964  MISS:      27766  HIT %:    99.7391  MISS %:   0.260867   MPKI: 0.55532
DTLB PREFETCH  REQUESTED:          0  ISSUED:          0  USEFUL:          0  USELESS:          0
DTLB USEFUL LOAD PREFETCHES:          0 PREFETCH ISSUED TO LOWER LEVEL:          0  ACCURACY: -nan
DTLB TIMELY PREFETCHES:          0 LATE PREFETCHES: 0 DROPPED PREFETCHES: 0
DTLB PREFETCHES SAME FILL-ORIGIN LEVEL: 0 DIFFERENT FILL-ORIGIN LEVEL: 0
DTLB AVERAGE MISS LATENCY: 23.8016 cycles
DTLB RQ	ACCESS:   11483855	FORWARD:          0	MERGED:     834302	TO_CACHE:   10649553

STLB TOTAL     ACCESS:    4366909  HIT:    4364686  MISS:       2223  HIT %:    99.9491  MISS %:  0.0509056   MPKI: 0.04446
STLB LOAD TRANSLATION ACCESS:      29118  HIT:      26905  MISS:       2213  HIT %:    92.3999  MISS %:    7.60011   MPKI: 0.04426
STLB TRANSLATION FROM L1D PREFETCHER ACCESS:    4337791  HIT:    4337781  MISS:         10  HIT %:    99.9998  MISS %: 0.000230532   MPKI: 0.0002
STLB PREFETCH  REQUESTED:          0  ISSUED:          0  USEFUL:         10  USELESS:          0
STLB USEFUL LOAD PREFETCHES:         10 PREFETCH ISSUED TO LOWER LEVEL:          0  ACCURACY: inf
STLB TIMELY PREFETCHES:         10 LATE PREFETCHES: 208 DROPPED PREFETCHES: 19249
STLB PREFETCHES SAME FILL-ORIGIN LEVEL: 0 DIFFERENT FILL-ORIGIN LEVEL: 0
STLB AVERAGE MISS LATENCY: 16772.3 cycles
STLB RQ	ACCESS:    4779189	FORWARD:          0	MERGED:     391871	TO_CACHE:    4387318

STLB Hit, L1D data hit: 0
STLB Hit, L2C data hit: 0
STLB Hit, LLC data hit: 0
STLB Hit, LLC data miss: 0
STLB STLB hints to L2: 0
L1D TOTAL     ACCESS:   15521315  HIT:   14574682  MISS:     946633  HIT %:    93.9011  MISS %:    6.09892   MPKI: 18.9327
L1D LOAD      ACCESS:    7782228  HIT:    7632722  MISS:     149506  HIT %:    98.0789  MISS %:    1.92112   MPKI: 2.99012
L1D RFO       ACCESS:    3167964  HIT:    2872109  MISS:     295855  HIT %:     90.661  MISS %:    9.33896   MPKI: 5.9171
L1D PREFETCH  ACCESS:    4571123  HIT:    4069851  MISS:     501272  HIT %:    89.0339  MISS %:    10.9661   MPKI: 10.0254
AGUS PREFETCH L1 MISS: 0
L1D PREFETCH  REQUESTED:    9878921  ISSUED:    9878921  USEFUL:     401229  USELESS:      99973
L1D USEFUL LOAD PREFETCHES:     401229 PREFETCH ISSUED TO LOWER LEVEL:     510288  ACCURACY: 78.628
L1D TIMELY PREFETCHES:     401229 LATE PREFETCHES: 4161 DROPPED PREFETCHES: 20420
L1D PREFETCHES SAME FILL-ORIGIN LEVEL: 510288 DIFFERENT FILL-ORIGIN LEVEL: 0
L1D AVERAGE MISS LATENCY: 188098 cycles
L1D RQ	ACCESS:   10675473	FORWARD:          0	MERGED:    2823863	TO_CACHE:    7823871
L1D WQ	ACCESS:    3740433	FORWARD:      28138	MERGED:      80449	TO_CACHE:    3659984
L1D PQ	ACCESS:    5128850	FORWARD:          0	MERGED:     378380	TO_CACHE:    4750071

L1D UNIQUE REGIONS ACCESSED: 0
L1D REGIONS CONFLICTS: 0
L1D Cross Page Prefetch Requests: 0
L1D Same Page Prefetch Requests: 11855668
L1D ROI Sum of L1D PQ occupancy: 63558421
L1D PREFETCHES PUSHED FROM L2C: 0
L1I TOTAL     ACCESS:    9637891  HIT:    9613093  MISS:      24798  HIT %:    99.7427  MISS %:   0.257297   MPKI: 0.49596
L1I LOAD      ACCESS:    9637891  HIT:    9613093  MISS:      24798  HIT %:    99.7427  MISS %:   0.257297   MPKI: 0.49596
L1I PREFETCH  REQUESTED:          0  ISSUED:          0  USEFUL:          0  USELESS:          0
L1I USEFUL LOAD PREFETCHES:          0 PREFETCH ISSUED TO LOWER LEVEL:          0  ACCURACY: -nan
L1I TIMELY PREFETCHES:          0 LATE PREFETCHES: 0 DROPPED PREFETCHES: 0
L1I PREFETCHES SAME FILL-ORIGIN LEVEL: 0 DIFFERENT FILL-ORIGIN LEVEL: 0
L1I AVERAGE MISS LATENCY: 52.2118 cycles
L1I RQ	ACCESS:   14414224	FORWARD:          0	MERGED:    4766898	TO_CACHE:    9647326

BTB TOTAL     ACCESS:    5842896  HIT:    5825324  MISS:      17572  HIT %:    99.6993  MISS %:   0.300741   MPKI: 0.35144
BTB BRANCH_DIRECT_JUMP	ACCESS:     214980  HIT:     214813  MISS:        167
BTB BRANCH_INDIRECT	ACCESS:       2007  HIT:       1748  MISS:        259
BTB BRANCH_CONDITIONAL	ACCESS:    5423621  HIT:    5422348  MISS:       1273
BTB BRANCH_DIRECT_CALL	ACCESS:     101143  HIT:     100534  MISS:        609
BTB BRANCH_INDIRECT_CALL	ACCESS:          0  HIT:          0  MISS:          0
BTB BRANCH_RETURN	ACCESS:     101145  HIT:      85881  MISS:      15264
BTB BRANCH_OTHER ACCESS:           0  HIT:          0  MISS:          0

L2C TOTAL     ACCESS:    2489402  HIT:    2146551  MISS:     342851  HIT %:    86.2276  MISS %:    13.7724   MPKI: 6.85702
L2C LOAD      ACCESS:     170136  HIT:     106948  MISS:      63188  HIT %:    62.8603  MISS %:    37.1397   MPKI: 1.26376
L2C DATA LOAD MPKI: 0.77478
L2C INSTRUCTION LOAD MPKI: 0.48898
L2C RFO       ACCESS:     295844  HIT:     219391  MISS:      76453  HIT %:    74.1577  MISS %:    25.8423   MPKI: 1.52906
L2C PREFETCH  ACCESS:    1608649  HIT:    1410558  MISS:     198091  HIT %:    87.6859  MISS %:    12.3141   MPKI: 3.96182
AGUS PREFETCH L1 MISS: 0
L2C DATA PREFETCH MPKI: 3.96182
L2C INSTRUCTION PREFETCH MPKI: 0
L2C WRITEBACK ACCESS:     391490  HIT:     387707  MISS:       3783  HIT %:    99.0337  MISS %:   0.966308   MPKI: 0.07566
L2C LOAD TRANSLATION ACCESS:       2530  HIT:       1624  MISS:        906  HIT %:    64.1897  MISS %:    35.8103   MPKI: 0.01812
L2C TRANSLATION FROM L1D PREFETCHER ACCESS:      20753  HIT:      20323  MISS:        430  HIT %:     97.928  MISS %:    2.07199   MPKI: 0.0086
L2C PREFETCH  REQUESTED:    1928181  ISSUED:    1886021  USEFUL:      21416  USELESS:     174711
L2C USEFUL LOAD PREFETCHES:      21416 PREFETCH ISSUED TO LOWER LEVEL:     904341  ACCURACY: 2.36813
L2C TIMELY PREFETCHES:      21416 LATE PREFETCHES: 293 DROPPED PREFETCHES: 0
L2C PREFETCHES SAME FILL-ORIGIN LEVEL: 61618 DIFFERENT FILL-ORIGIN LEVEL: 705957
L2C AVERAGE MISS LATENCY: 68.2827 cycles
L2C RQ	ACCESS:     489278	FORWARD:          0	MERGED:          0	TO_CACHE:     489263
L2C WQ	ACCESS:     391490	FORWARD:         84	MERGED:          0	TO_CACHE:     391490
L2C PQ	ACCESS:    2391457	FORWARD:          0	MERGED:      71518	TO_CACHE:    2319870

L2C Instructions Evicting Data 21634
L2C Translations Evicting Data 1196
L2C Data Evicting Data 290023
L2C Instructions Evicting Instructions 2687
L2C Translations Evicting Instructions 132
L2C Data Evicting Instructions 22042
L2C Instructions Evicting Translations 128
L2C Translations Evicting Translations 8
L2C Data Evicting Translations 1218
L2C Dense regions hint from L2: 0
PSCL5 TOTAL     ACCESS:      21680  HIT:      21680  MISS:          0  HIT %:        100  MISS %:          0   MPKI: 0
PSCL5 LOAD TRANSLATION ACCESS:       2213  HIT:       2213  MISS:          0  HIT %:        100  MISS %:          0   MPKI: 0
PSCL5 TRANSLATION FROM L1D PREFETCHER ACCESS:      19467  HIT:      19467  MISS:          0  HIT %:        100  MISS %:          0   MPKI: 0
PSCL5 PREFETCH  REQUESTED:          0  ISSUED:          0  USEFUL:          0  USELESS:          0
PSCL5 USEFUL LOAD PREFETCHES:          0 PREFETCH ISSUED TO LOWER LEVEL:          0  ACCURACY: -nan
PSCL5 TIMELY PREFETCHES:          0 LATE PREFETCHES: 0 DROPPED PREFETCHES: 0
PSCL5 PREFETCHES SAME FILL-ORIGIN LEVEL: 0 DIFFERENT FILL-ORIGIN LEVEL: 0

PSCL4 TOTAL     ACCESS:      21680  HIT:      21680  MISS:          0  HIT %:        100  MISS %:          0   MPKI: 0
PSCL4 LOAD TRANSLATION ACCESS:       2213  HIT:       2213  MISS:          0  HIT %:        100  MISS %:          0   MPKI: 0
PSCL4 TRANSLATION FROM L1D PREFETCHER ACCESS:      19467  HIT:      19467  MISS:          0  HIT %:        100  MISS %:          0   MPKI: 0
PSCL4 PREFETCH  REQUESTED:          0  ISSUED:          0  USEFUL:          0  USELESS:          0
PSCL4 USEFUL LOAD PREFETCHES:          0 PREFETCH ISSUED TO LOWER LEVEL:          0  ACCURACY: -nan
PSCL4 TIMELY PREFETCHES:          0 LATE PREFETCHES: 0 DROPPED PREFETCHES: 0
PSCL4 PREFETCHES SAME FILL-ORIGIN LEVEL: 0 DIFFERENT FILL-ORIGIN LEVEL: 0

PSCL3 TOTAL     ACCESS:      21680  HIT:      21680  MISS:          0  HIT %:        100  MISS %:          0   MPKI: 0
PSCL3 LOAD TRANSLATION ACCESS:       2213  HIT:       2213  MISS:          0  HIT %:        100  MISS %:          0   MPKI: 0
PSCL3 TRANSLATION FROM L1D PREFETCHER ACCESS:      19467  HIT:      19467  MISS:          0  HIT %:        100  MISS %:          0   MPKI: 0
PSCL3 PREFETCH  REQUESTED:          0  ISSUED:          0  USEFUL:          0  USELESS:          0
PSCL3 USEFUL LOAD PREFETCHES:          0 PREFETCH ISSUED TO LOWER LEVEL:          0  ACCURACY: -nan
PSCL3 TIMELY PREFETCHES:          0 LATE PREFETCHES: 0 DROPPED PREFETCHES: 0
PSCL3 PREFETCHES SAME FILL-ORIGIN LEVEL: 0 DIFFERENT FILL-ORIGIN LEVEL: 0

PSCL2 TOTAL     ACCESS:      20350  HIT:      20011  MISS:        339  HIT %:    98.3342  MISS %:    1.66585   MPKI: 0.00678
PSCL2 LOAD TRANSLATION ACCESS:       2214  HIT:       1875  MISS:        339  HIT %:    84.6883  MISS %:    15.3117   MPKI: 0.00678
PSCL2 TRANSLATION FROM L1D PREFETCHER ACCESS:      18136  HIT:      18136  MISS:          0  HIT %:        100  MISS %:          0   MPKI: 0
PSCL2 PREFETCH  REQUESTED:          0  ISSUED:          0  USEFUL:          0  USELESS:          0
PSCL2 USEFUL LOAD PREFETCHES:          0 PREFETCH ISSUED TO LOWER LEVEL:          0  ACCURACY: -nan
PSCL2 TIMELY PREFETCHES:          0 LATE PREFETCHES: 0 DROPPED PREFETCHES: 0
PSCL2 PREFETCHES SAME FILL-ORIGIN LEVEL: 0 DIFFERENT FILL-ORIGIN LEVEL: 0

LLC TOTAL     ACCESS:    1092367  HIT:     894523  MISS:     197844  HIT %:    81.8885  MISS %:    18.1115   MPKI: 3.95688
LLC LOAD      ACCESS:      62895  HIT:      54320  MISS:       8575  HIT %:    86.3662  MISS %:    13.6338   MPKI: 0.1715
LLC RFO       ACCESS:      76453  HIT:      33160  MISS:      43293  HIT %:    43.3731  MISS %:    56.6269   MPKI: 0.86586
LLC PREFETCH  ACCESS:     822378  HIT:     690907  MISS:     131471  HIT %:    84.0133  MISS %:    15.9867   MPKI: 2.62942
AGUS PREFETCH L1 MISS: 0
LLC WRITEBACK ACCESS:     129305  HIT:     115442  MISS:      13863  HIT %:    89.2788  MISS %:    10.7212   MPKI: 0.27726
LLC LOAD TRANSLATION ACCESS:        906  HIT:        444  MISS:        462  HIT %:    49.0066  MISS %:    50.9934   MPKI: 0.00924
LLC TRANSLATION FROM L1D PREFETCHER ACCESS:        430  HIT:        250  MISS:        180  HIT %:    58.1395  MISS %:    41.8605   MPKI: 0.0036
LLC PREFETCH  REQUESTED:          0  ISSUED:          0  USEFUL:      15890  USELESS:     110603
LLC USEFUL LOAD PREFETCHES:      15890 PREFETCH ISSUED TO LOWER LEVEL:     133470  ACCURACY: 11.9053
LLC TIMELY PREFETCHES:      15890 LATE PREFETCHES: 1993 DROPPED PREFETCHES: 0
LLC PREFETCHES SAME FILL-ORIGIN LEVEL: 112392 DIFFERENT FILL-ORIGIN LEVEL: 0
LLC AVERAGE MISS LATENCY: 146.419 cycles
LLC RQ	ACCESS:     140684	FORWARD:          0	MERGED:          0	TO_CACHE:     140684
LLC WQ	ACCESS:     129305	FORWARD:          0	MERGED:          0	TO_CACHE:     129305
LLC PQ	ACCESS:     904341	FORWARD:          0	MERGED:       5781	TO_CACHE:     898560

LLC Dense regions hint to LLC: 0

RAW hits: 115817
Loads Generated: 10791290
Loads sent to L1D: 10675473
Stores Generated: 3740422
Stores sent to L1D: 3740433
Major fault: 0 Minor fault: 5309
Allocated PAGES: 5309
CPU 0 L1D berti prefetcher final stats
0-> Hits: 646, Late: 0, Early: 0, Misses: 0
1-> Hits: 287, Late: 0, Early: 0, Misses: 0
3-> Hits: 566, Late: 0, Early: 0, Misses: 8
6-> Hits: 113, Late: 1, Early: 0, Misses: 0
7-> Hits: 16406, Late: 0, Early: 0, Misses: 0
9-> Hits: 178, Late: 0, Early: 0, Misses: 0
a-> Hits: 48, Late: 0, Early: 0, Misses: 0
b-> Hits: 1, Late: 0, Early: 0, Misses: 0
c-> Hits: 10157, Late: 87, Early: 0, Misses: 0
d-> Hits: 256, Late: 0, Early: 0, Misses: 0
f-> Hits: 56, Late: 0, Early: 0, Misses: 0
10-> Hits: 594, Late: 5, Early: 0, Misses: 59
11-> Hits: 16321, Late: 283, Early: 0, Misses: 0
12-> Hits: 1, Late: 0, Early: 0, Misses: 56
14-> Hits: 17228, Late: 517, Early: 0, Misses: 0
15-> Hits: 185, Late: 0, Early: 0, Misses: 0
16-> Hits: 47, Late: 0, Early: 0, Misses: 0
18-> Hits: 4258, Late: 2117, Early: 0, Misses: 1
1e-> Hits: 14477, Late: 733, Early: 0, Misses: 0
1f-> Hits: 56, Late: 0, Early: 0, Misses: 0
20-> Hits: 0, Late: 340, Early: 0, Misses: 0
21-> Hits: 1993, Late: 303, Early: 0, Misses: 149
22-> Hits: 60, Late: 0, Early: 0, Misses: 0
25-> Hits: 869, Late: 0, Early: 0, Misses: 0
26-> Hits: 15784, Late: 391, Early: 0, Misses: 0
27-> Hits: 15, Late: 0, Early: 0, Misses: 0
29-> Hits: 455, Late: 0, Early: 0, Misses: 0
2a-> Hits: 217, Late: 0, Early: 0, Misses: 0
2c-> Hits: 1, Late: 0, Early: 0, Misses: 0
2d-> Hits: 5902, Late: 0, Early: 0, Misses: 0
30-> Hits: 10891, Late: 0, Early: 0, Misses: 1
31-> Hits: 232, Late: 115, Early: 0, Misses: 52
32-> Hits: 49, Late: 0, Early: 0, Misses: 0
33-> Hits: 12264, Late: 11, Early: 0, Misses: 285
34-> Hits: 10763, Late: 0, Early: 0, Misses: 0
35-> Hits: 27, Late: 0, Early: 0, Misses: 0
36-> Hits: 12048, Late: 57, Early: 0, Misses: 0
38-> Hits: 142, Late: 0, Early: 0, Misses: 0
39-> Hits: 10041, Late: 411, Early: 0, Misses: 0
3a-> Hits: 115, Late: 0, Early: 0, Misses: 0
3b-> Hits: 15287, Late: 355, Early: 0, Misses: 613
3d-> Hits: 59, Late: 0, Early: 0, Misses: 0
3f-> Hits: 334, Late: 59, Early: 0, Misses: 76
43-> Hits: 56, Late: 0, Early: 0, Misses: 0
44-> Hits: 164, Late: 0, Early: 0, Misses: 0
45-> Hits: 9206, Late: 732, Early: 0, Misses: 0
46-> Hits: 9720, Late: 654, Early: 0, Misses: 0
47-> Hits: 399, Late: 0, Early: 0, Misses: 0
48-> Hits: 340, Late: 0, Early: 0, Misses: 0
49-> Hits: 312, Late: 0, Early: 0, Misses: 0
4a-> Hits: 6041, Late: 90, Early: 0, Misses: 36
4c-> Hits: 131, Late: 0, Early: 0, Misses: 0
4e-> Hits: 10935, Late: 56, Early: 0, Misses: 16
50-> Hits: 138, Late: 0, Early: 0, Misses: 0
51-> Hits: 109, Late: 0, Early: 0, Misses: 0
52-> Hits: 13466, Late: 100, Early: 0, Misses: 60
55-> Hits: 118, Late: 0, Early: 0, Misses: 0
56-> Hits: 376, Late: 0, Early: 0, Misses: 0
58-> Hits: 252, Late: 0, Early: 0, Misses: 0
59-> Hits: 0, Late: 0, Early: 0, Misses: 1
5b-> Hits: 48, Late: 0, Early: 0, Misses: 0
5d-> Hits: 4901, Late: 464, Early: 0, Misses: 399
60-> Hits: 12041, Late: 783, Early: 0, Misses: 21
62-> Hits: 10317, Late: 18, Early: 0, Misses: 0
64-> Hits: 5376, Late: 217, Early: 0, Misses: 238
65-> Hits: 13886, Late: 178, Early: 0, Misses: 0
67-> Hits: 264, Late: 0, Early: 0, Misses: 0
68-> Hits: 2, Late: 53, Early: 0, Misses: 0
69-> Hits: 8782, Late: 0, Early: 0, Misses: 0
6c-> Hits: 1, Late: 0, Early: 0, Misses: 0
6d-> Hits: 5, Late: 0, Early: 0, Misses: 0
6e-> Hits: 8, Late: 0, Early: 0, Misses: 0
6f-> Hits: 297, Late: 0, Early: 0, Misses: 0
71-> Hits: 12383, Late: 0, Early: 0, Misses: 0
72-> Hits: 361, Late: 0, Early: 0, Misses: 0
73-> Hits: 16414, Late: 0, Early: 0, Misses: 0
75-> Hits: 208, Late: 151, Early: 0, Misses: 0
76-> Hits: 201, Late: 0, Early: 0, Misses: 0
77-> Hits: 9395, Late: 148, Early: 0, Misses: 0
78-> Hits: 0, Late: 59, Early: 0, Misses: 0
7b-> Hits: 15427, Late: 458, Early: 0, Misses: 700
7c-> Hits: 230, Late: 4, Early: 0, Misses: 113
7f-> Hits: 260, Late: 113, Early: 0, Misses: 0
80-> Hits: 1308, Late: 0, Early: 0, Misses: 0
81-> Hits: 196, Late: 0, Early: 0, Misses: 0
83-> Hits: 23797, Late: 0, Early: 0, Misses: 0
85-> Hits: 59, Late: 0, Early: 0, Misses: 0
88-> Hits: 16239, Late: 0, Early: 0, Misses: 0
89-> Hits: 450, Late: 144, Early: 0, Misses: 0
8a-> Hits: 274, Late: 0, Early: 0, Misses: 0
8b-> Hits: 4770, Late: 13, Early: 0, Misses: 0
8c-> Hits: 9101, Late: 5, Early: 0, Misses: 19
8d-> Hits: 2, Late: 0, Early: 0, Misses: 0
8e-> Hits: 17, Late: 38, Early: 0, Misses: 0
91-> Hits: 0, Late: 340, Early: 0, Misses: 0
92-> Hits: 108, Late: 0, Early: 0, Misses: 0
93-> Hits: 3953, Late: 429, Early: 0, Misses: 0
95-> Hits: 2316, Late: 0, Early: 0, Misses: 0
97-> Hits: 3991, Late: 0, Early: 0, Misses: 0
99-> Hits: 16, Late: 38, Early: 0, Misses: 2
9a-> Hits: 578, Late: 0, Early: 0, Misses: 0
9c-> Hits: 35, Late: 0, Early: 0, Misses: 0
9d-> Hits: 16041, Late: 368, Early: 0, Misses: 0
9e-> Hits: 8948, Late: 216, Early: 0, Misses: 0
a0-> Hits: 26698, Late: 1, Early: 0, Misses: 58
a3-> Hits: 26, Late: 0, Early: 0, Misses: 0
a4-> Hits: 23075, Late: 60, Early: 0, Misses: 0
a5-> Hits: 155, Late: 0, Early: 0, Misses: 0
a7-> Hits: 30115, Late: 3083, Early: 0, Misses: 3
a8-> Hits: 59, Late: 0, Early: 0, Misses: 0
a9-> Hits: 251, Late: 0, Early: 0, Misses: 0
ab-> Hits: 0, Late: 56, Early: 0, Misses: 0
af-> Hits: 579, Late: 0, Early: 0, Misses: 0
b0-> Hits: 26107, Late: 1291, Early: 0, Misses: 0
b2-> Hits: 0, Late: 16, Early: 0, Misses: 41
b4-> Hits: 574, Late: 59, Early: 0, Misses: 0
b5-> Hits: 203, Late: 127, Early: 0, Misses: 0
b6-> Hits: 25748, Late: 1482, Early: 0, Misses: 0
b7-> Hits: 91, Late: 0, Early: 0, Misses: 100
b8-> Hits: 188, Late: 0, Early: 0, Misses: 0
bb-> Hits: 849, Late: 0, Early: 0, Misses: 0
bc-> Hits: 25078, Late: 1475, Early: 0, Misses: 9
be-> Hits: 417, Late: 2, Early: 0, Misses: 0
bf-> Hits: 128, Late: 92, Early: 0, Misses: 0
c0-> Hits: 3, Late: 0, Early: 0, Misses: 0
c4-> Hits: 78, Late: 0, Early: 0, Misses: 0
c6-> Hits: 1, Late: 0, Early: 0, Misses: 0
c7-> Hits: 363, Late: 14, Early: 0, Misses: 0
c9-> Hits: 6, Late: 7, Early: 0, Misses: 0
ca-> Hits: 168, Late: 0, Early: 0, Misses: 0
cb-> Hits: 56, Late: 0, Early: 0, Misses: 0
cc-> Hits: 155, Late: 0, Early: 0, Misses: 0
ce-> Hits: 25044, Late: 1573, Early: 0, Misses: 0
cf-> Hits: 680, Late: 0, Early: 0, Misses: 0
d0-> Hits: 21972, Late: 0, Early: 0, Misses: 0
d1-> Hits: 370, Late: 0, Early: 0, Misses: 10
d2-> Hits: 56, Late: 0, Early: 0, Misses: 0
d3-> Hits: 56, Late: 0, Early: 0, Misses: 0
d4-> Hits: 31853, Late: 1899, Early: 0, Misses: 33
d5-> Hits: 16, Late: 26, Early: 0, Misses: 14
d6-> Hits: 56, Late: 56, Early: 0, Misses: 0
d7-> Hits: 4, Late: 0, Early: 0, Misses: 0
d8-> Hits: 8853, Late: 114, Early: 0, Misses: 0
da-> Hits: 351, Late: 24, Early: 0, Misses: 0
dc-> Hits: 338, Late: 0, Early: 0, Misses: 0
dd-> Hits: 716, Late: 0, Early: 0, Misses: 0
df-> Hits: 68, Late: 32, Early: 0, Misses: 0
e0-> Hits: 6321, Late: 0, Early: 0, Misses: 56
e1-> Hits: 331, Late: 339, Early: 0, Misses: 12
e2-> Hits: 6, Late: 7, Early: 0, Misses: 0
e3-> Hits: 568, Late: 0, Early: 0, Misses: 0
e4-> Hits: 433, Late: 0, Early: 0, Misses: 0
e5-> Hits: 178, Late: 0, Early: 0, Misses: 0
e6-> Hits: 26219, Late: 930, Early: 0, Misses: 1
e7-> Hits: 406, Late: 0, Early: 0, Misses: 0
e8-> Hits: 57, Late: 0, Early: 0, Misses: 0
ec-> Hits: 25711, Late: 1485, Early: 0, Misses: 0
ee-> Hits: 680, Late: 0, Early: 0, Misses: 0
ef-> Hits: 13, Late: 0, Early: 0, Misses: 0
f0-> Hits: 20733, Late: 0, Early: 0, Misses: 60
f2-> Hits: 24869, Late: 1454, Early: 0, Misses: 0
f3-> Hits: 76, Late: 3, Early: 0, Misses: 48
f4-> Hits: 57, Late: 0, Early: 0, Misses: 0
f6-> Hits: 442, Late: 0, Early: 0, Misses: 0
f7-> Hits: 57, Late: 0, Early: 0, Misses: 0
f8-> Hits: 114, Late: 0, Early: 0, Misses: 0
f9-> Hits: 278, Late: 0, Early: 0, Misses: 0
fa-> Hits: 345, Late: 56, Early: 0, Misses: 0
fc-> Hits: 114, Late: 0, Early: 0, Misses: 0
fd-> Hits: 57, Late: 0, Early: 0, Misses: 0
fe-> Hits: 114, Late: 0, Early: 0, Misses: 0
ff-> Hits: 460, Late: 0, Early: 0, Misses: 0
100-> Hits: 28127, Late: 1, Early: 0, Misses: 0
101-> Hits: 20766, Late: 6, Early: 0, Misses: 131
102-> Hits: 72, Late: 0, Early: 0, Misses: 0
103-> Hits: 110, Late: 0, Early: 0, Misses: 0
104-> Hits: 26524, Late: 52, Early: 0, Misses: 94
105-> Hits: 23961, Late: 0, Early: 0, Misses: 0
109-> Hits: 21940, Late: 566, Early: 0, Misses: 0
10a-> Hits: 22, Late: 0, Early: 0, Misses: 0
10b-> Hits: 24795, Late: 62, Early: 0, Misses: 0
10c-> Hits: 680, Late: 0, Early: 0, Misses: 0
10d-> Hits: 686, Late: 0, Early: 0, Misses: 0
10e-> Hits: 20320, Late: 0, Early: 0, Misses: 0
110-> Hits: 17739, Late: 450, Early: 0, Misses: 54
111-> Hits: 5, Late: 3, Early: 0, Misses: 48
113-> Hits: 24878, Late: 60, Early: 0, Misses: 0
114-> Hits: 7615, Late: 6, Early: 0, Misses: 13
117-> Hits: 680, Late: 0, Early: 0, Misses: 0
118-> Hits: 680, Late: 0, Early: 0, Misses: 0
119-> Hits: 8160, Late: 0, Early: 0, Misses: 0
11a-> Hits: 515, Late: 0, Early: 0, Misses: 0
11b-> Hits: 55, Late: 0, Early: 0, Misses: 0
11f-> Hits: 101, Late: 0, Early: 0, Misses: 0
120-> Hits: 485, Late: 11, Early: 0, Misses: 46
121-> Hits: 8905, Late: 0, Early: 0, Misses: 77
125-> Hits: 56, Late: 0, Early: 0, Misses: 0
126-> Hits: 20442, Late: 0, Early: 0, Misses: 0
129-> Hits: 54, Late: 0, Early: 0, Misses: 0
12c-> Hits: 56, Late: 0, Early: 0, Misses: 0
12d-> Hits: 281, Late: 0, Early: 0, Misses: 0
12e-> Hits: 8352, Late: 0, Early: 0, Misses: 0
130-> Hits: 59509, Late: 0, Early: 0, Misses: 0
131-> Hits: 57, Late: 0, Early: 0, Misses: 0
132-> Hits: 57, Late: 0, Early: 0, Misses: 0
133-> Hits: 8206, Late: 0, Early: 0, Misses: 0
134-> Hits: 73, Late: 0, Early: 0, Misses: 0
135-> Hits: 367, Late: 0, Early: 0, Misses: 0
136-> Hits: 561, Late: 59, Early: 0, Misses: 0
138-> Hits: 50456, Late: 5038, Early: 0, Misses: 0
139-> Hits: 144, Late: 0, Early: 0, Misses: 0
13b-> Hits: 46, Late: 0, Early: 0, Misses: 0
13c-> Hits: 56, Late: 0, Early: 0, Misses: 0
13e-> Hits: 621, Late: 1, Early: 0, Misses: 0
140-> Hits: 25909, Late: 377, Early: 0, Misses: 0
143-> Hits: 56, Late: 0, Early: 0, Misses: 0
144-> Hits: 159, Late: 0, Early: 0, Misses: 0
147-> Hits: 0, Late: 1, Early: 0, Misses: 0
148-> Hits: 17, Late: 0, Early: 0, Misses: 0
14a-> Hits: 17154, Late: 6, Early: 0, Misses: 0
14b-> Hits: 17, Late: 0, Early: 0, Misses: 0
14d-> Hits: 5, Late: 2, Early: 0, Misses: 6
14e-> Hits: 0, Late: 57, Early: 0, Misses: 0
14f-> Hits: 0, Late: 1, Early: 0, Misses: 0
150-> Hits: 162, Late: 0, Early: 0, Misses: 0
151-> Hits: 0, Late: 0, Early: 0, Misses: 1
152-> Hits: 1, Late: 0, Early: 0, Misses: 0
154-> Hits: 23953, Late: 0, Early: 0, Misses: 0
156-> Hits: 57, Late: 0, Early: 0, Misses: 0
158-> Hits: 48, Late: 0, Early: 0, Misses: 0
15a-> Hits: 18, Late: 0, Early: 0, Misses: 0
15b-> Hits: 1, Late: 0, Early: 0, Misses: 0
15c-> Hits: 7066, Late: 262, Early: 0, Misses: 0
15f-> Hits: 40, Late: 0, Early: 0, Misses: 0
160-> Hits: 40322, Late: 1077, Early: 0, Misses: 277
162-> Hits: 189, Late: 0, Early: 0, Misses: 0
165-> Hits: 7047, Late: 862, Early: 0, Misses: 0
166-> Hits: 567, Late: 0, Early: 0, Misses: 0
168-> Hits: 3021, Late: 2292, Early: 0, Misses: 351
169-> Hits: 2217, Late: 0, Early: 0, Misses: 0
16b-> Hits: 5, Late: 0, Early: 0, Misses: 0
16c-> Hits: 968, Late: 0, Early: 0, Misses: 0
16e-> Hits: 129, Late: 0, Early: 0, Misses: 0
170-> Hits: 0, Late: 0, Early: 0, Misses: 60
171-> Hits: 76, Late: 0, Early: 0, Misses: 0
172-> Hits: 680, Late: 0, Early: 0, Misses: 0
174-> Hits: 960, Late: 0, Early: 0, Misses: 0
175-> Hits: 10708, Late: 60, Early: 0, Misses: 0
176-> Hits: 25393, Late: 0, Early: 0, Misses: 0
177-> Hits: 366, Late: 0, Early: 0, Misses: 0
179-> Hits: 39, Late: 0, Early: 0, Misses: 0
17a-> Hits: 56, Late: 0, Early: 0, Misses: 0
17c-> Hits: 197, Late: 0, Early: 0, Misses: 1
17d-> Hits: 4106, Late: 0, Early: 0, Misses: 60
17e-> Hits: 116, Late: 0, Early: 0, Misses: 0
17f-> Hits: 4959, Late: 0, Early: 0, Misses: 0
180-> Hits: 10076, Late: 7, Early: 0, Misses: 372
183-> Hits: 17, Late: 0, Early: 0, Misses: 0
184-> Hits: 9210, Late: 0, Early: 0, Misses: 0
185-> Hits: 56, Late: 0, Early: 0, Misses: 0
187-> Hits: 740, Late: 0, Early: 0, Misses: 0
188-> Hits: 17, Late: 0, Early: 0, Misses: 0
189-> Hits: 46, Late: 0, Early: 0, Misses: 0
18a-> Hits: 181, Late: 0, Early: 0, Misses: 0
18b-> Hits: 19, Late: 0, Early: 0, Misses: 0
18c-> Hits: 9778, Late: 58, Early: 0, Misses: 0
18d-> Hits: 340, Late: 0, Early: 0, Misses: 0
18e-> Hits: 341, Late: 7, Early: 0, Misses: 52
18f-> Hits: 94, Late: 0, Early: 0, Misses: 0
190-> Hits: 341, Late: 0, Early: 0, Misses: 0
191-> Hits: 240, Late: 0, Early: 0, Misses: 0
192-> Hits: 575, Late: 0, Early: 0, Misses: 0
193-> Hits: 19598, Late: 0, Early: 0, Misses: 59
194-> Hits: 340, Late: 0, Early: 0, Misses: 1
195-> Hits: 339, Late: 0, Early: 0, Misses: 0
196-> Hits: 159, Late: 0, Early: 0, Misses: 0
197-> Hits: 412, Late: 0, Early: 0, Misses: 0
199-> Hits: 297, Late: 0, Early: 0, Misses: 0
19b-> Hits: 3898, Late: 13, Early: 0, Misses: 60
19c-> Hits: 353, Late: 0, Early: 0, Misses: 0
19d-> Hits: 23, Late: 0, Early: 0, Misses: 0
19f-> Hits: 78, Late: 0, Early: 0, Misses: 0
1a1-> Hits: 14, Late: 0, Early: 0, Misses: 0
1a2-> Hits: 105, Late: 0, Early: 0, Misses: 0
1a3-> Hits: 1601, Late: 353, Early: 0, Misses: 0
1a4-> Hits: 26, Late: 0, Early: 0, Misses: 0
1a5-> Hits: 17, Late: 0, Early: 0, Misses: 0
1a8-> Hits: 13022, Late: 44, Early: 0, Misses: 0
1aa-> Hits: 96, Late: 0, Early: 0, Misses: 0
1ac-> Hits: 34, Late: 0, Early: 0, Misses: 0
1ad-> Hits: 108, Late: 0, Early: 0, Misses: 0
1ae-> Hits: 176, Late: 1, Early: 0, Misses: 0
1af-> Hits: 121, Late: 0, Early: 0, Misses: 0
1b0-> Hits: 171, Late: 0, Early: 0, Misses: 0
1b1-> Hits: 121, Late: 0, Early: 0, Misses: 0
1b3-> Hits: 192, Late: 0, Early: 0, Misses: 0
1b4-> Hits: 37, Late: 6, Early: 0, Misses: 53
1b5-> Hits: 289, Late: 0, Early: 0, Misses: 0
1b6-> Hits: 349, Late: 0, Early: 0, Misses: 0
1b7-> Hits: 172, Late: 0, Early: 0, Misses: 0
1b8-> Hits: 292, Late: 0, Early: 0, Misses: 0
1b9-> Hits: 307, Late: 16, Early: 0, Misses: 19
1bb-> Hits: 1, Late: 0, Early: 0, Misses: 0
1bc-> Hits: 57, Late: 0, Early: 0, Misses: 0
1be-> Hits: 568, Late: 0, Early: 0, Misses: 2
1bf-> Hits: 254, Late: 0, Early: 0, Misses: 0
1c0-> Hits: 6, Late: 0, Early: 0, Misses: 0
1c3-> Hits: 282, Late: 0, Early: 0, Misses: 0
1c8-> Hits: 56, Late: 0, Early: 0, Misses: 0
1c9-> Hits: 6, Late: 0, Early: 0, Misses: 0
1ca-> Hits: 107, Late: 0, Early: 0, Misses: 0
1cb-> Hits: 232, Late: 64, Early: 0, Misses: 46
1cc-> Hits: 168, Late: 0, Early: 0, Misses: 0
1ce-> Hits: 73, Late: 0, Early: 0, Misses: 0
1d1-> Hits: 235, Late: 0, Early: 0, Misses: 0
1d2-> Hits: 4, Late: 0, Early: 0, Misses: 0
1d3-> Hits: 1, Late: 0, Early: 0, Misses: 0
1d4-> Hits: 1, Late: 0, Early: 0, Misses: 0
1d5-> Hits: 1, Late: 1, Early: 0, Misses: 0
1d6-> Hits: 50, Late: 0, Early: 0, Misses: 0
1d7-> Hits: 0, Late: 1, Early: 0, Misses: 0
1d8-> Hits: 14, Late: 16, Early: 0, Misses: 27
1da-> Hits: 1, Late: 0, Early: 0, Misses: 0
1db-> Hits: 57, Late: 0, Early: 0, Misses: 0
1dc-> Hits: 58, Late: 0, Early: 0, Misses: 0
1dd-> Hits: 303, Late: 0, Early: 0, Misses: 0
1de-> Hits: 57, Late: 0, Early: 0, Misses: 0
1e0-> Hits: 33455, Late: 27, Early: 0, Misses: 456
1e2-> Hits: 58, Late: 0, Early: 0, Misses: 0
1e4-> Hits: 23510, Late: 331, Early: 0, Misses: 0
1e5-> Hits: 161, Late: 0, Early: 0, Misses: 0
1e6-> Hits: 52, Late: 0, Early: 0, Misses: 0
1e7-> Hits: 10, Late: 0, Early: 0, Misses: 50
1e8-> Hits: 386, Late: 58, Early: 0, Misses: 0
1e9-> Hits: 46, Late: 0, Early: 0, Misses: 0
1ea-> Hits: 0, Late: 1, Early: 0, Misses: 0
1ee-> Hits: 965, Late: 175, Early: 0, Misses: 301
1f0-> Hits: 9256, Late: 392, Early: 0, Misses: 894
1f1-> Hits: 20, Late: 0, Early: 0, Misses: 0
1f2-> Hits: 105, Late: 0, Early: 0, Misses: 0
1f4-> Hits: 202, Late: 0, Early: 0, Misses: 0
1f5-> Hits: 7768, Late: 469, Early: 0, Misses: 0
1f6-> Hits: 11, Late: 12, Early: 0, Misses: 33
1f9-> Hits: 133, Late: 0, Early: 0, Misses: 0
1fa-> Hits: 168, Late: 0, Early: 0, Misses: 0
1fe-> Hits: 69, Late: 54, Early: 0, Misses: 0
200-> Hits: 585, Late: 1, Early: 0, Misses: 1
205-> Hits: 1258, Late: 28, Early: 0, Misses: 26
206-> Hits: 439, Late: 0, Early: 0, Misses: 0
207-> Hits: 17, Late: 0, Early: 0, Misses: 0
208-> Hits: 168, Late: 0, Early: 0, Misses: 0
209-> Hits: 48, Late: 0, Early: 0, Misses: 0
20b-> Hits: 3, Late: 0, Early: 0, Misses: 0
20c-> Hits: 71, Late: 0, Early: 0, Misses: 0
20d-> Hits: 18, Late: 0, Early: 0, Misses: 0
20e-> Hits: 71, Late: 0, Early: 0, Misses: 0
20f-> Hits: 55, Late: 0, Early: 0, Misses: 0
211-> Hits: 57, Late: 0, Early: 0, Misses: 0
212-> Hits: 115, Late: 0, Early: 0, Misses: 0
213-> Hits: 458, Late: 0, Early: 0, Misses: 0
215-> Hits: 105, Late: 0, Early: 0, Misses: 0
216-> Hits: 276, Late: 0, Early: 0, Misses: 0
218-> Hits: 135, Late: 12, Early: 0, Misses: 0
21b-> Hits: 0, Late: 55, Early: 0, Misses: 0
21c-> Hits: 135, Late: 11, Early: 0, Misses: 0
21e-> Hits: 84, Late: 0, Early: 0, Misses: 0
220-> Hits: 260, Late: 100, Early: 0, Misses: 0
221-> Hits: 318, Late: 0, Early: 0, Misses: 0
222-> Hits: 10310, Late: 0, Early: 0, Misses: 0
223-> Hits: 22, Late: 0, Early: 0, Misses: 0
224-> Hits: 113, Late: 1, Early: 0, Misses: 0
225-> Hits: 166, Late: 12, Early: 0, Misses: 0
228-> Hits: 0, Late: 57, Early: 0, Misses: 0
229-> Hits: 3174, Late: 504, Early: 0, Misses: 1042
22a-> Hits: 6, Late: 0, Early: 0, Misses: 0
22c-> Hits: 0, Late: 1, Early: 0, Misses: 0
22e-> Hits: 175, Late: 0, Early: 0, Misses: 0
22f-> Hits: 44, Late: 0, Early: 0, Misses: 0
230-> Hits: 1, Late: 0, Early: 0, Misses: 0
232-> Hits: 26, Late: 5, Early: 0, Misses: 0
235-> Hits: 57, Late: 0, Early: 0, Misses: 0
236-> Hits: 64, Late: 1, Early: 0, Misses: 2
237-> Hits: 0, Late: 55, Early: 0, Misses: 0
238-> Hits: 113, Late: 0, Early: 0, Misses: 0
23a-> Hits: 143, Late: 0, Early: 0, Misses: 0
23c-> Hits: 9946, Late: 0, Early: 0, Misses: 0
23d-> Hits: 9, Late: 0, Early: 0, Misses: 0
23e-> Hits: 57, Late: 0, Early: 0, Misses: 0
240-> Hits: 11913, Late: 0, Early: 0, Misses: 0
241-> Hits: 301, Late: 1, Early: 0, Misses: 3
242-> Hits: 98, Late: 0, Early: 0, Misses: 0
246-> Hits: 55, Late: 0, Early: 0, Misses: 0
247-> Hits: 44, Late: 0, Early: 0, Misses: 0
249-> Hits: 10598, Late: 574, Early: 0, Misses: 0
24a-> Hits: 7, Late: 0, Early: 0, Misses: 0
24b-> Hits: 57, Late: 0, Early: 0, Misses: 0
24d-> Hits: 111, Late: 0, Early: 0, Misses: 0
24e-> Hits: 10276, Late: 16, Early: 0, Misses: 0
250-> Hits: 696, Late: 85, Early: 0, Misses: 0
252-> Hits: 120, Late: 0, Early: 0, Misses: 0
253-> Hits: 70, Late: 0, Early: 0, Misses: 0
255-> Hits: 154, Late: 56, Early: 0, Misses: 16
256-> Hits: 1, Late: 0, Early: 0, Misses: 0
258-> Hits: 211, Late: 0, Early: 0, Misses: 0
259-> Hits: 3, Late: 42, Early: 0, Misses: 0
25a-> Hits: 59, Late: 0, Early: 0, Misses: 0
25d-> Hits: 57, Late: 0, Early: 0, Misses: 0
260-> Hits: 166, Late: 0, Early: 0, Misses: 0
261-> Hits: 10130, Late: 0, Early: 0, Misses: 0
263-> Hits: 403, Late: 0, Early: 0, Misses: 0
265-> Hits: 47, Late: 0, Early: 0, Misses: 0
267-> Hits: 181, Late: 0, Early: 0, Misses: 0
26a-> Hits: 17, Late: 14, Early: 0, Misses: 140
26b-> Hits: 633, Late: 0, Early: 0, Misses: 0
26d-> Hits: 166, Late: 0, Early: 0, Misses: 0
270-> Hits: 17109, Late: 40, Early: 0, Misses: 1431
271-> Hits: 1, Late: 0, Early: 0, Misses: 0
272-> Hits: 30, Late: 0, Early: 0, Misses: 0
273-> Hits: 397, Late: 0, Early: 0, Misses: 0
275-> Hits: 6210, Late: 0, Early: 0, Misses: 0
276-> Hits: 117, Late: 0, Early: 0, Misses: 0
277-> Hits: 149, Late: 0, Early: 0, Misses: 157
278-> Hits: 624, Late: 0, Early: 0, Misses: 0
279-> Hits: 12045, Late: 55, Early: 0, Misses: 0
27b-> Hits: 457, Late: 0, Early: 0, Misses: 0
27c-> Hits: 1096, Late: 0, Early: 0, Misses: 0
27d-> Hits: 4706, Late: 0, Early: 0, Misses: 0
27f-> Hits: 9909, Late: 0, Early: 0, Misses: 0
280-> Hits: 628, Late: 1, Early: 0, Misses: 3
281-> Hits: 56, Late: 1, Early: 0, Misses: 0
282-> Hits: 57, Late: 0, Early: 0, Misses: 0
283-> Hits: 162, Late: 0, Early: 0, Misses: 0
286-> Hits: 11837, Late: 0, Early: 0, Misses: 0
287-> Hits: 62, Late: 1, Early: 0, Misses: 0
288-> Hits: 0, Late: 55, Early: 0, Misses: 0
289-> Hits: 120, Late: 0, Early: 0, Misses: 0
28a-> Hits: 252, Late: 1, Early: 0, Misses: 0
28b-> Hits: 207, Late: 0, Early: 0, Misses: 0
28d-> Hits: 57, Late: 0, Early: 0, Misses: 0
28e-> Hits: 161, Late: 0, Early: 0, Misses: 0
28f-> Hits: 455, Late: 0, Early: 0, Misses: 0
290-> Hits: 23798, Late: 0, Early: 0, Misses: 0
291-> Hits: 696, Late: 4, Early: 0, Misses: 0
292-> Hits: 69, Late: 0, Early: 0, Misses: 0
293-> Hits: 94, Late: 0, Early: 0, Misses: 0
294-> Hits: 80, Late: 0, Early: 0, Misses: 0
295-> Hits: 23147, Late: 821, Early: 0, Misses: 0
297-> Hits: 1103, Late: 13, Early: 0, Misses: 13
299-> Hits: 660, Late: 55, Early: 0, Misses: 0
29a-> Hits: 9832, Late: 0, Early: 0, Misses: 0
29b-> Hits: 34, Late: 1, Early: 0, Misses: 0
29c-> Hits: 52, Late: 0, Early: 0, Misses: 0
29d-> Hits: 808, Late: 0, Early: 0, Misses: 0
29e-> Hits: 285, Late: 0, Early: 0, Misses: 0
29f-> Hits: 625, Late: 0, Early: 0, Misses: 0
2a0-> Hits: 6, Late: 0, Early: 0, Misses: 0
2a1-> Hits: 356, Late: 0, Early: 0, Misses: 0
2a2-> Hits: 522, Late: 0, Early: 0, Misses: 0
2a3-> Hits: 363, Late: 0, Early: 0, Misses: 0
2a4-> Hits: 5, Late: 0, Early: 0, Misses: 0
2a5-> Hits: 556, Late: 0, Early: 0, Misses: 0
2a7-> Hits: 1116, Late: 0, Early: 0, Misses: 0
2a8-> Hits: 36, Late: 0, Early: 0, Misses: 0
2aa-> Hits: 103, Late: 0, Early: 0, Misses: 0
2ac-> Hits: 10194, Late: 0, Early: 0, Misses: 0
2ad-> Hits: 360, Late: 115, Early: 0, Misses: 103
2af-> Hits: 516, Late: 0, Early: 0, Misses: 0
2b0-> Hits: 1229, Late: 0, Early: 0, Misses: 0
2b4-> Hits: 19, Late: 17, Early: 0, Misses: 0
2b5-> Hits: 2, Late: 0, Early: 0, Misses: 0
2b7-> Hits: 36, Late: 0, Early: 0, Misses: 0
2b9-> Hits: 275, Late: 0, Early: 0, Misses: 0
2ba-> Hits: 56, Late: 0, Early: 0, Misses: 0
2be-> Hits: 0, Late: 1, Early: 0, Misses: 0
2bf-> Hits: 10424, Late: 0, Early: 0, Misses: 0
2c2-> Hits: 56, Late: 0, Early: 0, Misses: 0
2c6-> Hits: 246, Late: 0, Early: 0, Misses: 0
2c7-> Hits: 458, Late: 0, Early: 0, Misses: 56
2c8-> Hits: 505, Late: 0, Early: 0, Misses: 0
2c9-> Hits: 114, Late: 0, Early: 0, Misses: 0
2cb-> Hits: 8, Late: 9, Early: 0, Misses: 0
2cc-> Hits: 10474, Late: 0, Early: 0, Misses: 0
2ce-> Hits: 247, Late: 15, Early: 0, Misses: 0
2cf-> Hits: 0, Late: 0, Early: 0, Misses: 56
2d0-> Hits: 13715, Late: 11, Early: 0, Misses: 0
2d1-> Hits: 114, Late: 117, Early: 0, Misses: 0
2d4-> Hits: 306, Late: 1, Early: 0, Misses: 0
2d5-> Hits: 147, Late: 0, Early: 0, Misses: 24
2d7-> Hits: 83, Late: 0, Early: 0, Misses: 0
2d8-> Hits: 10648, Late: 552, Early: 0, Misses: 0
2d9-> Hits: 48, Late: 0, Early: 0, Misses: 0
2dd-> Hits: 202, Late: 0, Early: 0, Misses: 0
2de-> Hits: 56, Late: 0, Early: 0, Misses: 0
2df-> Hits: 403, Late: 0, Early: 0, Misses: 0
2e0-> Hits: 119, Late: 20, Early: 0, Misses: 0
2e2-> Hits: 113, Late: 0, Early: 0, Misses: 0
2e4-> Hits: 422, Late: 0, Early: 0, Misses: 0
2e5-> Hits: 50, Late: 0, Early: 0, Misses: 0
2e6-> Hits: 583, Late: 0, Early: 0, Misses: 1
2ea-> Hits: 656, Late: 0, Early: 0, Misses: 0
2ec-> Hits: 99, Late: 0, Early: 0, Misses: 0
2ed-> Hits: 3, Late: 0, Early: 0, Misses: 0
2ee-> Hits: 3, Late: 53, Early: 0, Misses: 0
2ef-> Hits: 654, Late: 0, Early: 0, Misses: 0
2f0-> Hits: 507, Late: 24, Early: 0, Misses: 133
2f2-> Hits: 132, Late: 58, Early: 0, Misses: 58
2f3-> Hits: 3, Late: 0, Early: 0, Misses: 0
2f4-> Hits: 69, Late: 0, Early: 0, Misses: 0
2f5-> Hits: 65, Late: 0, Early: 0, Misses: 0
2f7-> Hits: 319, Late: 0, Early: 0, Misses: 0
2fa-> Hits: 212, Late: 0, Early: 0, Misses: 0
2fc-> Hits: 250, Late: 57, Early: 0, Misses: 0
2fd-> Hits: 56, Late: 0, Early: 0, Misses: 0
2ff-> Hits: 55, Late: 0, Early: 0, Misses: 0
300-> Hits: 29806, Late: 716, Early: 0, Misses: 0
301-> Hits: 49, Late: 0, Early: 0, Misses: 0
302-> Hits: 172, Late: 0, Early: 0, Misses: 0
304-> Hits: 233, Late: 0, Early: 0, Misses: 0
305-> Hits: 30744, Late: 1, Early: 0, Misses: 1264
306-> Hits: 165, Late: 0, Early: 0, Misses: 0
307-> Hits: 88, Late: 0, Early: 0, Misses: 0
309-> Hits: 32250, Late: 4, Early: 0, Misses: 191
30c-> Hits: 552, Late: 0, Early: 0, Misses: 0
30e-> Hits: 2, Late: 4, Early: 0, Misses: 1
30f-> Hits: 47, Late: 0, Early: 0, Misses: 0
312-> Hits: 0, Late: 55, Early: 0, Misses: 0
313-> Hits: 10795, Late: 0, Early: 0, Misses: 0
314-> Hits: 129, Late: 0, Early: 0, Misses: 55
315-> Hits: 168, Late: 0, Early: 0, Misses: 0
318-> Hits: 562, Late: 0, Early: 0, Misses: 0
31a-> Hits: 23543, Late: 2915, Early: 0, Misses: 0
31c-> Hits: 299, Late: 0, Early: 0, Misses: 0
31d-> Hits: 0, Late: 111, Early: 0, Misses: 0
31f-> Hits: 240, Late: 0, Early: 0, Misses: 0
320-> Hits: 10301, Late: 545, Early: 0, Misses: 0
321-> Hits: 57, Late: 0, Early: 0, Misses: 0
322-> Hits: 177, Late: 0, Early: 0, Misses: 0
324-> Hits: 32331, Late: 123, Early: 0, Misses: 9
325-> Hits: 36, Late: 0, Early: 0, Misses: 0
327-> Hits: 58, Late: 0, Early: 0, Misses: 0
328-> Hits: 27, Late: 5, Early: 0, Misses: 4
329-> Hits: 203, Late: 0, Early: 0, Misses: 0
32a-> Hits: 171, Late: 0, Early: 0, Misses: 0
32b-> Hits: 70, Late: 0, Early: 0, Misses: 0
32c-> Hits: 609, Late: 0, Early: 0, Misses: 0
32d-> Hits: 456, Late: 0, Early: 0, Misses: 0
32e-> Hits: 417, Late: 0, Early: 0, Misses: 0
330-> Hits: 478, Late: 0, Early: 0, Misses: 0
331-> Hits: 12900, Late: 1, Early: 0, Misses: 59
332-> Hits: 25525, Late: 1601, Early: 0, Misses: 0
333-> Hits: 252, Late: 0, Early: 0, Misses: 0
334-> Hits: 15080, Late: 583, Early: 0, Misses: 0
336-> Hits: 27, Late: 57, Early: 0, Misses: 0
338-> Hits: 660, Late: 0, Early: 0, Misses: 0
33a-> Hits: 741, Late: 2, Early: 0, Misses: 0
33b-> Hits: 540, Late: 0, Early: 0, Misses: 0
33c-> Hits: 2598, Late: 364, Early: 0, Misses: 0
33d-> Hits: 57, Late: 0, Early: 0, Misses: 0
33e-> Hits: 53, Late: 0, Early: 0, Misses: 0
340-> Hits: 39323, Late: 953, Early: 0, Misses: 909
342-> Hits: 9859, Late: 5, Early: 0, Misses: 157
343-> Hits: 182, Late: 0, Early: 0, Misses: 0
344-> Hits: 10617, Late: 880, Early: 0, Misses: 96
345-> Hits: 31654, Late: 0, Early: 0, Misses: 0
348-> Hits: 10344, Late: 0, Early: 0, Misses: 0
349-> Hits: 3122, Late: 58, Early: 0, Misses: 0
34a-> Hits: 0, Late: 57, Early: 0, Misses: 0
34b-> Hits: 1646, Late: 0, Early: 0, Misses: 57
34c-> Hits: 0, Late: 56, Early: 0, Misses: 0
34d-> Hits: 171, Late: 0, Early: 0, Misses: 0
34e-> Hits: 19, Late: 0, Early: 0, Misses: 0
34f-> Hits: 1, Late: 0, Early: 0, Misses: 56
350-> Hits: 18294, Late: 275, Early: 0, Misses: 9
351-> Hits: 68, Late: 0, Early: 0, Misses: 0
352-> Hits: 2, Late: 0, Early: 0, Misses: 0
353-> Hits: 37, Late: 0, Early: 0, Misses: 0
354-> Hits: 18303, Late: 328, Early: 0, Misses: 351
355-> Hits: 718, Late: 524, Early: 0, Misses: 1
356-> Hits: 14, Late: 0, Early: 0, Misses: 0
358-> Hits: 168, Late: 0, Early: 0, Misses: 0
359-> Hits: 25387, Late: 355, Early: 0, Misses: 0
35a-> Hits: 56, Late: 0, Early: 0, Misses: 0
35b-> Hits: 612, Late: 0, Early: 0, Misses: 0
35d-> Hits: 3023, Late: 420, Early: 0, Misses: 0
35f-> Hits: 96, Late: 0, Early: 0, Misses: 0
360-> Hits: 227, Late: 0, Early: 0, Misses: 1
361-> Hits: 2869, Late: 48, Early: 0, Misses: 0
362-> Hits: 98, Late: 0, Early: 0, Misses: 0
365-> Hits: 13419, Late: 3, Early: 0, Misses: 152
366-> Hits: 0, Late: 1, Early: 0, Misses: 0
367-> Hits: 31507, Late: 4, Early: 0, Misses: 219
368-> Hits: 57, Late: 0, Early: 0, Misses: 0
369-> Hits: 852, Late: 0, Early: 0, Misses: 0
36a-> Hits: 56, Late: 0, Early: 0, Misses: 0
36b-> Hits: 287, Late: 0, Early: 0, Misses: 0
36d-> Hits: 241, Late: 0, Early: 0, Misses: 0
370-> Hits: 23554, Late: 387, Early: 0, Misses: 0
371-> Hits: 4, Late: 0, Early: 0, Misses: 0
372-> Hits: 72, Late: 0, Early: 0, Misses: 1
373-> Hits: 389, Late: 0, Early: 0, Misses: 0
374-> Hits: 19580, Late: 38, Early: 0, Misses: 0
375-> Hits: 194, Late: 0, Early: 0, Misses: 0
376-> Hits: 23832, Late: 350, Early: 0, Misses: 0
378-> Hits: 11466, Late: 1262, Early: 0, Misses: 0
37a-> Hits: 36, Late: 0, Early: 0, Misses: 0
37b-> Hits: 64, Late: 0, Early: 0, Misses: 0
37d-> Hits: 423, Late: 0, Early: 0, Misses: 0
37e-> Hits: 171, Late: 46, Early: 0, Misses: 3
380-> Hits: 7868, Late: 541, Early: 0, Misses: 0
382-> Hits: 15702, Late: 277, Early: 0, Misses: 337
383-> Hits: 30, Late: 0, Early: 0, Misses: 31
385-> Hits: 491, Late: 0, Early: 0, Misses: 0
386-> Hits: 68, Late: 1, Early: 0, Misses: 7
387-> Hits: 16632, Late: 49, Early: 0, Misses: 0
388-> Hits: 460, Late: 0, Early: 0, Misses: 0
389-> Hits: 1329, Late: 47, Early: 0, Misses: 0
38b-> Hits: 107, Late: 0, Early: 0, Misses: 0
38e-> Hits: 522, Late: 0, Early: 0, Misses: 0
38f-> Hits: 172, Late: 55, Early: 0, Misses: 0
390-> Hits: 709, Late: 0, Early: 0, Misses: 0
391-> Hits: 16533, Late: 954, Early: 0, Misses: 101
392-> Hits: 1229, Late: 184, Early: 0, Misses: 0
393-> Hits: 14, Late: 0, Early: 0, Misses: 0
395-> Hits: 45, Late: 2, Early: 0, Misses: 0
396-> Hits: 117, Late: 0, Early: 0, Misses: 0
397-> Hits: 530, Late: 0, Early: 0, Misses: 0
398-> Hits: 117, Late: 0, Early: 0, Misses: 0
399-> Hits: 533, Late: 0, Early: 0, Misses: 0
39a-> Hits: 433, Late: 0, Early: 0, Misses: 0
39b-> Hits: 1338, Late: 0, Early: 0, Misses: 0
39c-> Hits: 184, Late: 4, Early: 0, Misses: 0
39e-> Hits: 298, Late: 0, Early: 0, Misses: 0
39f-> Hits: 14717, Late: 0, Early: 0, Misses: 0
3a0-> Hits: 15560, Late: 496, Early: 0, Misses: 0
3a1-> Hits: 501, Late: 2, Early: 0, Misses: 0
3a2-> Hits: 16, Late: 57, Early: 0, Misses: 0
3a4-> Hits: 7, Late: 0, Early: 0, Misses: 0
3a5-> Hits: 123, Late: 0, Early: 0, Misses: 0
3a6-> Hits: 165, Late: 0, Early: 0, Misses: 0
3a7-> Hits: 14466, Late: 450, Early: 0, Misses: 244
3a8-> Hits: 119, Late: 54, Early: 0, Misses: 0
3a9-> Hits: 641, Late: 0, Early: 0, Misses: 0
3aa-> Hits: 328, Late: 64, Early: 0, Misses: 0
3ac-> Hits: 3, Late: 0, Early: 0, Misses: 0
3ad-> Hits: 2344, Late: 0, Early: 0, Misses: 0
3ae-> Hits: 572, Late: 0, Early: 0, Misses: 0
3af-> Hits: 327, Late: 0, Early: 0, Misses: 0
3b0-> Hits: 775, Late: 132, Early: 0, Misses: 461
3b1-> Hits: 57, Late: 0, Early: 0, Misses: 0
3b2-> Hits: 1, Late: 0, Early: 0, Misses: 0
3b3-> Hits: 470, Late: 0, Early: 0, Misses: 0
3b4-> Hits: 360, Late: 0, Early: 0, Misses: 0
3b5-> Hits: 17, Late: 0, Early: 0, Misses: 0
3b6-> Hits: 659, Late: 0, Early: 0, Misses: 58
3b7-> Hits: 1529, Late: 55, Early: 0, Misses: 0
3b8-> Hits: 37, Late: 0, Early: 0, Misses: 0
3b9-> Hits: 56, Late: 0, Early: 0, Misses: 0
3ba-> Hits: 27, Late: 0, Early: 0, Misses: 0
3bb-> Hits: 1, Late: 0, Early: 0, Misses: 0
3bc-> Hits: 0, Late: 57, Early: 0, Misses: 0
3bd-> Hits: 10536, Late: 118, Early: 0, Misses: 0
3bf-> Hits: 1753, Late: 54, Early: 0, Misses: 0
3c0-> Hits: 119888, Late: 103, Early: 0, Misses: 0
3c1-> Hits: 171, Late: 0, Early: 0, Misses: 0
3c2-> Hits: 1329, Late: 0, Early: 0, Misses: 0
3c4-> Hits: 63631, Late: 101, Early: 0, Misses: 315
3c5-> Hits: 120, Late: 52, Early: 0, Misses: 0
3c7-> Hits: 1408, Late: 0, Early: 0, Misses: 1
3c8-> Hits: 26363, Late: 8, Early: 0, Misses: 59
3cc-> Hits: 40, Late: 0, Early: 0, Misses: 0
3cd-> Hits: 4, Late: 0, Early: 0, Misses: 0
3ce-> Hits: 227, Late: 0, Early: 0, Misses: 0
3cf-> Hits: 23, Late: 0, Early: 0, Misses: 0
3d0-> Hits: 19601, Late: 542, Early: 0, Misses: 3
3d2-> Hits: 94, Late: 0, Early: 0, Misses: 0
3d4-> Hits: 409, Late: 0, Early: 0, Misses: 0
3d5-> Hits: 1, Late: 0, Early: 0, Misses: 0
3d6-> Hits: 647, Late: 0, Early: 0, Misses: 0
3d7-> Hits: 99, Late: 0, Early: 0, Misses: 0
3d9-> Hits: 90, Late: 0, Early: 0, Misses: 0
3da-> Hits: 85, Late: 0, Early: 0, Misses: 0
3db-> Hits: 173, Late: 57, Early: 0, Misses: 0
3dc-> Hits: 75, Late: 0, Early: 0, Misses: 0
3de-> Hits: 6939, Late: 0, Early: 0, Misses: 0
3df-> Hits: 56, Late: 0, Early: 0, Misses: 0
3e1-> Hits: 1081, Late: 50, Early: 0, Misses: 0
3e2-> Hits: 403, Late: 71, Early: 0, Misses: 0
3e3-> Hits: 8496, Late: 59, Early: 0, Misses: 0
3e4-> Hits: 24878, Late: 55, Early: 0, Misses: 0
3e5-> Hits: 171, Late: 0, Early: 0, Misses: 0
3e6-> Hits: 14579, Late: 475, Early: 0, Misses: 270
3e7-> Hits: 154, Late: 0, Early: 0, Misses: 0
3e8-> Hits: 18, Late: 0, Early: 0, Misses: 0
3ea-> Hits: 499, Late: 15, Early: 0, Misses: 179
3eb-> Hits: 5539, Late: 459, Early: 0, Misses: 708
3ec-> Hits: 329, Late: 13, Early: 0, Misses: 0
3ee-> Hits: 391, Late: 2, Early: 0, Misses: 0
3ef-> Hits: 22, Late: 0, Early: 0, Misses: 0
3f0-> Hits: 7213, Late: 0, Early: 0, Misses: 0
3f1-> Hits: 95, Late: 32, Early: 0, Misses: 0
3f3-> Hits: 15312, Late: 0, Early: 0, Misses: 0
3f4-> Hits: 16936, Late: 41, Early: 0, Misses: 59
3f5-> Hits: 526, Late: 19, Early: 0, Misses: 57
3f6-> Hits: 2440, Late: 0, Early: 0, Misses: 0
3f7-> Hits: 62, Late: 0, Early: 0, Misses: 0
3f8-> Hits: 145, Late: 6, Early: 0, Misses: 2
3fb-> Hits: 6805, Late: 0, Early: 0, Misses: 0
3fc-> Hits: 3311, Late: 385, Early: 0, Misses: 2
3fd-> Hits: 1471, Late: 0, Early: 0, Misses: 56
3ff-> Hits: 279, Late: 57, Early: 0, Misses: 0
401-> Hits: 10539, Late: 252, Early: 0, Misses: 0
402-> Hits: 1281, Late: 56, Early: 0, Misses: 51
403-> Hits: 70, Late: 57, Early: 0, Misses: 2
404-> Hits: 1544, Late: 276, Early: 0, Misses: 0
405-> Hits: 14889, Late: 418, Early: 0, Misses: 76
406-> Hits: 220898, Late: 1131, Early: 0, Misses: 391
408-> Hits: 2717, Late: 0, Early: 0, Misses: 0
409-> Hits: 4978, Late: 501, Early: 0, Misses: 0
40a-> Hits: 57, Late: 1, Early: 0, Misses: 0
40b-> Hits: 126, Late: 6, Early: 0, Misses: 0
40c-> Hits: 1, Late: 0, Early: 0, Misses: 0
40d-> Hits: 0, Late: 1, Early: 0, Misses: 0
40e-> Hits: 7862, Late: 442, Early: 0, Misses: 752
40f-> Hits: 143, Late: 0, Early: 0, Misses: 0
410-> Hits: 86, Late: 3, Early: 0, Misses: 76
411-> Hits: 8596, Late: 114, Early: 0, Misses: 0
412-> Hits: 57, Late: 0, Early: 0, Misses: 2
413-> Hits: 406, Late: 5, Early: 0, Misses: 0
414-> Hits: 1739, Late: 22, Early: 0, Misses: 426
415-> Hits: 78, Late: 1, Early: 0, Misses: 0
416-> Hits: 232, Late: 0, Early: 0, Misses: 0
417-> Hits: 4757, Late: 560, Early: 0, Misses: 0
418-> Hits: 538, Late: 0, Early: 0, Misses: 1
419-> Hits: 4563, Late: 57, Early: 0, Misses: 19
41c-> Hits: 941, Late: 551, Early: 0, Misses: 0
41e-> Hits: 609, Late: 3, Early: 0, Misses: 118
41f-> Hits: 810, Late: 0, Early: 0, Misses: 0
420-> Hits: 3627, Late: 5, Early: 0, Misses: 0
421-> Hits: 60, Late: 34, Early: 0, Misses: 20
422-> Hits: 9017, Late: 62, Early: 0, Misses: 0
423-> Hits: 628, Late: 0, Early: 0, Misses: 0
425-> Hits: 59, Late: 0, Early: 0, Misses: 0
426-> Hits: 286, Late: 0, Early: 0, Misses: 0
427-> Hits: 1, Late: 57, Early: 0, Misses: 0
42a-> Hits: 5456, Late: 0, Early: 0, Misses: 0
42b-> Hits: 1130, Late: 0, Early: 0, Misses: 0
42e-> Hits: 295, Late: 0, Early: 0, Misses: 0
42f-> Hits: 19, Late: 20, Early: 0, Misses: 0
430-> Hits: 1342, Late: 0, Early: 0, Misses: 29
431-> Hits: 113, Late: 58, Early: 0, Misses: 0
433-> Hits: 672, Late: 1, Early: 0, Misses: 0
434-> Hits: 0, Late: 101, Early: 0, Misses: 0
435-> Hits: 121, Late: 0, Early: 0, Misses: 21
436-> Hits: 0, Late: 57, Early: 0, Misses: 0
438-> Hits: 739, Late: 0, Early: 0, Misses: 0
43a-> Hits: 107, Late: 0, Early: 0, Misses: 0
43b-> Hits: 137431, Late: 41, Early: 0, Misses: 0
43c-> Hits: 57, Late: 0, Early: 0, Misses: 0
43d-> Hits: 3, Late: 0, Early: 0, Misses: 0
43e-> Hits: 454, Late: 57, Early: 0, Misses: 84
43f-> Hits: 736, Late: 2, Early: 0, Misses: 16
440-> Hits: 10758, Late: 8, Early: 0, Misses: 453
441-> Hits: 34, Late: 0, Early: 0, Misses: 0
442-> Hits: 92, Late: 0, Early: 0, Misses: 0
444-> Hits: 11264, Late: 1, Early: 0, Misses: 0
445-> Hits: 76, Late: 0, Early: 0, Misses: 0
446-> Hits: 1015, Late: 0, Early: 0, Misses: 0
447-> Hits: 771, Late: 0, Early: 0, Misses: 0
449-> Hits: 45, Late: 0, Early: 0, Misses: 0
44a-> Hits: 34, Late: 3, Early: 0, Misses: 0
44b-> Hits: 0, Late: 1, Early: 0, Misses: 0
44c-> Hits: 10608, Late: 1, Early: 0, Misses: 110
44d-> Hits: 6998, Late: 66, Early: 0, Misses: 0
44e-> Hits: 76, Late: 0, Early: 0, Misses: 0
44f-> Hits: 0, Late: 2, Early: 0, Misses: 0
450-> Hits: 14282, Late: 0, Early: 0, Misses: 0
451-> Hits: 1, Late: 55, Early: 0, Misses: 0
452-> Hits: 196, Late: 0, Early: 0, Misses: 0
453-> Hits: 524, Late: 0, Early: 0, Misses: 0
454-> Hits: 10794, Late: 78, Early: 0, Misses: 298
457-> Hits: 95, Late: 0, Early: 0, Misses: 0
458-> Hits: 23183, Late: 63, Early: 0, Misses: 280
459-> Hits: 55, Late: 0, Early: 0, Misses: 0
45a-> Hits: 88, Late: 0, Early: 0, Misses: 0
45b-> Hits: 124, Late: 1, Early: 0, Misses: 61
45c-> Hits: 717, Late: 0, Early: 0, Misses: 0
45d-> Hits: 269, Late: 4, Early: 0, Misses: 0
45e-> Hits: 236, Late: 0, Early: 0, Misses: 0
45f-> Hits: 58, Late: 0, Early: 0, Misses: 0
460-> Hits: 20316, Late: 0, Early: 0, Misses: 0
462-> Hits: 1196, Late: 2, Early: 0, Misses: 68
464-> Hits: 282, Late: 0, Early: 0, Misses: 0
465-> Hits: 343, Late: 59, Early: 0, Misses: 120
466-> Hits: 35, Late: 0, Early: 0, Misses: 0
467-> Hits: 513, Late: 5, Early: 0, Misses: 65
468-> Hits: 10566, Late: 7, Early: 0, Misses: 58
469-> Hits: 104, Late: 0, Early: 0, Misses: 0
46a-> Hits: 604, Late: 0, Early: 0, Misses: 0
46b-> Hits: 449, Late: 0, Early: 0, Misses: 0
46c-> Hits: 707, Late: 0, Early: 0, Misses: 0
46e-> Hits: 0, Late: 1, Early: 0, Misses: 0
46f-> Hits: 236, Late: 0, Early: 0, Misses: 0
470-> Hits: 9, Late: 0, Early: 0, Misses: 0
472-> Hits: 12783, Late: 0, Early: 0, Misses: 61
473-> Hits: 859, Late: 1, Early: 0, Misses: 61
474-> Hits: 13881, Late: 0, Early: 0, Misses: 0
475-> Hits: 93, Late: 0, Early: 0, Misses: 0
478-> Hits: 1209, Late: 0, Early: 0, Misses: 0
47a-> Hits: 88, Late: 0, Early: 0, Misses: 0
47b-> Hits: 19, Late: 58, Early: 0, Misses: 0
47c-> Hits: 371, Late: 0, Early: 0, Misses: 0
47e-> Hits: 60, Late: 0, Early: 0, Misses: 0
47f-> Hits: 7078, Late: 40, Early: 0, Misses: 0
480-> Hits: 714, Late: 1, Early: 0, Misses: 52
481-> Hits: 522, Late: 0, Early: 0, Misses: 0
482-> Hits: 542, Late: 0, Early: 0, Misses: 0
483-> Hits: 522, Late: 0, Early: 0, Misses: 0
484-> Hits: 1, Late: 0, Early: 0, Misses: 0
485-> Hits: 522, Late: 57, Early: 0, Misses: 0
486-> Hits: 56, Late: 0, Early: 0, Misses: 0
487-> Hits: 558, Late: 0, Early: 0, Misses: 0
488-> Hits: 190, Late: 0, Early: 0, Misses: 0
489-> Hits: 1630, Late: 0, Early: 0, Misses: 0
48a-> Hits: 522, Late: 0, Early: 0, Misses: 0
48d-> Hits: 1344, Late: 0, Early: 0, Misses: 0
48f-> Hits: 7924, Late: 17, Early: 0, Misses: 0
490-> Hits: 1254, Late: 0, Early: 0, Misses: 0
491-> Hits: 1, Late: 57, Early: 0, Misses: 0
492-> Hits: 17832, Late: 37, Early: 0, Misses: 0
494-> Hits: 470, Late: 0, Early: 0, Misses: 0
495-> Hits: 1567, Late: 0, Early: 0, Misses: 0
499-> Hits: 12035, Late: 90, Early: 0, Misses: 1
49b-> Hits: 165, Late: 0, Early: 0, Misses: 0
49c-> Hits: 293, Late: 0, Early: 0, Misses: 0
49d-> Hits: 1968, Late: 0, Early: 0, Misses: 0
49e-> Hits: 8, Late: 0, Early: 0, Misses: 0
49f-> Hits: 59, Late: 0, Early: 0, Misses: 0
4a0-> Hits: 2840, Late: 6, Early: 0, Misses: 0
4a1-> Hits: 56, Late: 0, Early: 0, Misses: 0
4a2-> Hits: 136, Late: 0, Early: 0, Misses: 1
4a4-> Hits: 16232, Late: 57, Early: 0, Misses: 0
4a5-> Hits: 1095, Late: 0, Early: 0, Misses: 0
4a8-> Hits: 1066, Late: 1, Early: 0, Misses: 0
4a9-> Hits: 56, Late: 0, Early: 0, Misses: 0
4aa-> Hits: 15317, Late: 9, Early: 0, Misses: 679
4ab-> Hits: 852, Late: 13, Early: 0, Misses: 41
4ac-> Hits: 8815, Late: 43, Early: 0, Misses: 0
4ae-> Hits: 1, Late: 0, Early: 0, Misses: 0
4af-> Hits: 36, Late: 0, Early: 0, Misses: 0
4b0-> Hits: 19414, Late: 50, Early: 0, Misses: 188
4b2-> Hits: 42, Late: 0, Early: 0, Misses: 0
4b3-> Hits: 55, Late: 0, Early: 0, Misses: 0
4b4-> Hits: 2006, Late: 50, Early: 0, Misses: 0
4b7-> Hits: 242, Late: 2, Early: 0, Misses: 0
4b8-> Hits: 858, Late: 0, Early: 0, Misses: 0
4b9-> Hits: 522, Late: 57, Early: 0, Misses: 0
4ba-> Hits: 55, Late: 0, Early: 0, Misses: 0
4bc-> Hits: 16180, Late: 52, Early: 0, Misses: 3
4bd-> Hits: 15348, Late: 10, Early: 0, Misses: 550
4bf-> Hits: 1282, Late: 0, Early: 0, Misses: 0
4c0-> Hits: 89526, Late: 0, Early: 0, Misses: 0
4c1-> Hits: 52, Late: 0, Early: 0, Misses: 5
4c3-> Hits: 11180, Late: 56, Early: 0, Misses: 0
4c4-> Hits: 44598, Late: 57, Early: 0, Misses: 0
4c5-> Hits: 73, Late: 16, Early: 0, Misses: 0
4c6-> Hits: 4745, Late: 114, Early: 0, Misses: 0
4c7-> Hits: 1541, Late: 1, Early: 0, Misses: 0
4c8-> Hits: 249, Late: 2, Early: 0, Misses: 0
4c9-> Hits: 114, Late: 0, Early: 0, Misses: 0
4ca-> Hits: 1, Late: 0, Early: 0, Misses: 59
4cc-> Hits: 8630, Late: 263, Early: 0, Misses: 0
4ce-> Hits: 17, Late: 0, Early: 0, Misses: 0
4d0-> Hits: 11777, Late: 1021, Early: 0, Misses: 279
4d2-> Hits: 164, Late: 0, Early: 0, Misses: 0
4d3-> Hits: 541, Late: 0, Early: 0, Misses: 0
4d4-> Hits: 821, Late: 0, Early: 0, Misses: 0
4d7-> Hits: 82, Late: 5, Early: 0, Misses: 4
4d8-> Hits: 23337, Late: 0, Early: 0, Misses: 0
4d9-> Hits: 3655, Late: 11, Early: 0, Misses: 0
4da-> Hits: 56, Late: 0, Early: 0, Misses: 0
4dc-> Hits: 13, Late: 0, Early: 0, Misses: 0
4de-> Hits: 260, Late: 0, Early: 0, Misses: 0
4e0-> Hits: 1715, Late: 57, Early: 0, Misses: 0
4e2-> Hits: 11093, Late: 1021, Early: 0, Misses: 30
4e3-> Hits: 844, Late: 0, Early: 0, Misses: 0
4e4-> Hits: 0, Late: 1, Early: 0, Misses: 0
4e5-> Hits: 106, Late: 0, Early: 0, Misses: 0
4e6-> Hits: 0, Late: 55, Early: 0, Misses: 0
4e7-> Hits: 1, Late: 0, Early: 0, Misses: 0
4e8-> Hits: 88076, Late: 0, Early: 0, Misses: 0
4e9-> Hits: 1, Late: 0, Early: 0, Misses: 0
4ea-> Hits: 267, Late: 1, Early: 0, Misses: 0
4eb-> Hits: 169, Late: 0, Early: 0, Misses: 0
4ec-> Hits: 15696, Late: 7, Early: 0, Misses: 230
4ed-> Hits: 53215, Late: 16, Early: 0, Misses: 0
4ee-> Hits: 1, Late: 0, Early: 0, Misses: 0
4ef-> Hits: 6115, Late: 177, Early: 0, Misses: 0
4f0-> Hits: 2111, Late: 167, Early: 0, Misses: 8
4f1-> Hits: 289, Late: 1, Early: 0, Misses: 59
4f2-> Hits: 15870, Late: 72, Early: 0, Misses: 1
4f3-> Hits: 3336, Late: 0, Early: 0, Misses: 0
4f4-> Hits: 0, Late: 57, Early: 0, Misses: 0
4f5-> Hits: 3347, Late: 19, Early: 0, Misses: 0
4f7-> Hits: 59, Late: 57, Early: 0, Misses: 0
4f8-> Hits: 21, Late: 0, Early: 0, Misses: 0
4f9-> Hits: 84220, Late: 65, Early: 0, Misses: 189
4fa-> Hits: 73, Late: 0, Early: 0, Misses: 0
4fc-> Hits: 15337, Late: 363, Early: 0, Misses: 106
4fd-> Hits: 209, Late: 25, Early: 0, Misses: 46
4ff-> Hits: 0, Late: 0, Early: 0, Misses: 60
500-> Hits: 15809, Late: 88, Early: 0, Misses: 2495
501-> Hits: 184, Late: 0, Early: 0, Misses: 0
503-> Hits: 57, Late: 0, Early: 0, Misses: 0
504-> Hits: 12108, Late: 0, Early: 0, Misses: 190
505-> Hits: 17, Late: 0, Early: 0, Misses: 0
507-> Hits: 56, Late: 0, Early: 0, Misses: 0
508-> Hits: 20, Late: 0, Early: 0, Misses: 0
509-> Hits: 481, Late: 0, Early: 0, Misses: 0
50a-> Hits: 13220, Late: 1, Early: 0, Misses: 0
50c-> Hits: 10120, Late: 0, Early: 0, Misses: 0
50d-> Hits: 126, Late: 0, Early: 0, Misses: 0
50e-> Hits: 30, Late: 0, Early: 0, Misses: 0
50f-> Hits: 0, Late: 0, Early: 0, Misses: 56
510-> Hits: 2163, Late: 0, Early: 0, Misses: 0
511-> Hits: 47, Late: 0, Early: 0, Misses: 0
512-> Hits: 12789, Late: 6, Early: 0, Misses: 1065
514-> Hits: 12642, Late: 5, Early: 0, Misses: 189
515-> Hits: 165, Late: 57, Early: 0, Misses: 0
516-> Hits: 56, Late: 0, Early: 0, Misses: 0
519-> Hits: 315, Late: 0, Early: 0, Misses: 0
51b-> Hits: 56890, Late: 224, Early: 0, Misses: 7
51c-> Hits: 12156, Late: 1, Early: 0, Misses: 165
51f-> Hits: 57, Late: 57, Early: 0, Misses: 0
520-> Hits: 204, Late: 0, Early: 0, Misses: 0
521-> Hits: 8823, Late: 216, Early: 0, Misses: 0
522-> Hits: 111, Late: 0, Early: 0, Misses: 0
523-> Hits: 36, Late: 0, Early: 0, Misses: 0
524-> Hits: 331, Late: 0, Early: 0, Misses: 0
525-> Hits: 54, Late: 0, Early: 0, Misses: 0
526-> Hits: 32795, Late: 107, Early: 0, Misses: 50
527-> Hits: 50, Late: 0, Early: 0, Misses: 10
529-> Hits: 9968, Late: 61, Early: 0, Misses: 9
52a-> Hits: 106, Late: 0, Early: 0, Misses: 0
52b-> Hits: 40, Late: 0, Early: 0, Misses: 0
52f-> Hits: 176, Late: 0, Early: 0, Misses: 0
530-> Hits: 320, Late: 0, Early: 0, Misses: 0
531-> Hits: 305, Late: 0, Early: 0, Misses: 0
532-> Hits: 253, Late: 0, Early: 0, Misses: 0
533-> Hits: 57, Late: 0, Early: 0, Misses: 0
535-> Hits: 1, Late: 0, Early: 0, Misses: 0
538-> Hits: 5162, Late: 110, Early: 0, Misses: 0
539-> Hits: 129, Late: 0, Early: 0, Misses: 0
53a-> Hits: 253, Late: 0, Early: 0, Misses: 0
53b-> Hits: 10385, Late: 161, Early: 0, Misses: 6
53e-> Hits: 2100, Late: 4, Early: 0, Misses: 0
53f-> Hits: 60, Late: 17, Early: 0, Misses: 0
540-> Hits: 32370, Late: 1441, Early: 0, Misses: 27
541-> Hits: 710, Late: 0, Early: 0, Misses: 0
544-> Hits: 33534, Late: 1352, Early: 0, Misses: 18
548-> Hits: 0, Late: 0, Early: 0, Misses: 56
549-> Hits: 35793, Late: 2126, Early: 0, Misses: 0
54a-> Hits: 0, Late: 57, Early: 0, Misses: 0
54c-> Hits: 56, Late: 1, Early: 0, Misses: 0
54d-> Hits: 222, Late: 0, Early: 0, Misses: 0
54e-> Hits: 1603, Late: 60, Early: 0, Misses: 170
550-> Hits: 122, Late: 0, Early: 0, Misses: 0
551-> Hits: 45472, Late: 11, Early: 0, Misses: 622
552-> Hits: 38, Late: 0, Early: 0, Misses: 0
553-> Hits: 0, Late: 1, Early: 0, Misses: 0
555-> Hits: 11, Late: 0, Early: 0, Misses: 0
556-> Hits: 32143, Late: 1487, Early: 0, Misses: 82
557-> Hits: 16788, Late: 57, Early: 0, Misses: 6
558-> Hits: 805, Late: 0, Early: 0, Misses: 0
559-> Hits: 845, Late: 0, Early: 0, Misses: 0
55b-> Hits: 566, Late: 0, Early: 0, Misses: 0
55c-> Hits: 1541, Late: 180, Early: 0, Misses: 112
55d-> Hits: 566, Late: 0, Early: 0, Misses: 0
55e-> Hits: 161, Late: 0, Early: 0, Misses: 0
55f-> Hits: 566, Late: 0, Early: 0, Misses: 0
560-> Hits: 0, Late: 1, Early: 0, Misses: 0
561-> Hits: 1793, Late: 0, Early: 0, Misses: 0
562-> Hits: 236, Late: 0, Early: 0, Misses: 0
564-> Hits: 1787, Late: 0, Early: 0, Misses: 63
565-> Hits: 50, Late: 0, Early: 0, Misses: 0
566-> Hits: 0, Late: 1, Early: 0, Misses: 55
567-> Hits: 1103, Late: 117, Early: 0, Misses: 67
568-> Hits: 101, Late: 0, Early: 0, Misses: 0
569-> Hits: 26889, Late: 154, Early: 0, Misses: 155
56a-> Hits: 463, Late: 0, Early: 0, Misses: 0
56c-> Hits: 101, Late: 0, Early: 0, Misses: 0
56d-> Hits: 34132, Late: 1148, Early: 0, Misses: 1
56e-> Hits: 368, Late: 366, Early: 0, Misses: 114
56f-> Hits: 1459, Late: 0, Early: 0, Misses: 1
570-> Hits: 1945, Late: 0, Early: 0, Misses: 0
572-> Hits: 997, Late: 110, Early: 0, Misses: 111
573-> Hits: 12083, Late: 0, Early: 0, Misses: 868
575-> Hits: 497, Late: 0, Early: 0, Misses: 0
576-> Hits: 55, Late: 0, Early: 0, Misses: 0
577-> Hits: 342, Late: 0, Early: 0, Misses: 0
579-> Hits: 474, Late: 0, Early: 0, Misses: 0
57a-> Hits: 812, Late: 62, Early: 0, Misses: 111
57c-> Hits: 30861, Late: 1571, Early: 0, Misses: 0
57e-> Hits: 102, Late: 0, Early: 0, Misses: 0
57f-> Hits: 1, Late: 57, Early: 0, Misses: 0
580-> Hits: 30859, Late: 180, Early: 0, Misses: 2724
581-> Hits: 34, Late: 0, Early: 0, Misses: 0
583-> Hits: 23, Late: 0, Early: 0, Misses: 0
584-> Hits: 14013, Late: 14, Early: 0, Misses: 1627
585-> Hits: 610, Late: 2, Early: 0, Misses: 0
586-> Hits: 165, Late: 0, Early: 0, Misses: 0
587-> Hits: 462, Late: 89, Early: 0, Misses: 82
588-> Hits: 685, Late: 55, Early: 0, Misses: 120
589-> Hits: 41251, Late: 58, Early: 0, Misses: 0
58a-> Hits: 819, Late: 0, Early: 0, Misses: 0
58b-> Hits: 0, Late: 57, Early: 0, Misses: 0
58c-> Hits: 822, Late: 135, Early: 0, Misses: 411
58d-> Hits: 12822, Late: 1, Early: 0, Misses: 59
58e-> Hits: 27, Late: 0, Early: 0, Misses: 0
58f-> Hits: 1787, Late: 8, Early: 0, Misses: 0
591-> Hits: 9451, Late: 6, Early: 0, Misses: 130
592-> Hits: 0, Late: 1, Early: 0, Misses: 0
595-> Hits: 1223, Late: 0, Early: 0, Misses: 0
596-> Hits: 11904, Late: 436, Early: 0, Misses: 229
597-> Hits: 336, Late: 339, Early: 0, Misses: 70
598-> Hits: 1, Late: 0, Early: 0, Misses: 56
599-> Hits: 12879, Late: 1, Early: 0, Misses: 7
59a-> Hits: 2056, Late: 0, Early: 0, Misses: 0
59e-> Hits: 11078, Late: 134, Early: 0, Misses: 21
59f-> Hits: 187, Late: 0, Early: 0, Misses: 0
5a0-> Hits: 1534, Late: 0, Early: 0, Misses: 0
5a1-> Hits: 1, Late: 0, Early: 0, Misses: 0
5a2-> Hits: 100, Late: 0, Early: 0, Misses: 0
5a3-> Hits: 9423, Late: 9, Early: 0, Misses: 265
5a5-> Hits: 13069, Late: 18, Early: 0, Misses: 30
5a9-> Hits: 10236, Late: 1120, Early: 0, Misses: 0
5aa-> Hits: 35026, Late: 658, Early: 0, Misses: 14
5ac-> Hits: 79, Late: 59, Early: 0, Misses: 116
5ad-> Hits: 2103, Late: 242, Early: 0, Misses: 0
5b0-> Hits: 7, Late: 0, Early: 0, Misses: 110
5b1-> Hits: 12871, Late: 1, Early: 0, Misses: 59
5b2-> Hits: 1142, Late: 0, Early: 0, Misses: 0
5b3-> Hits: 15176, Late: 2, Early: 0, Misses: 441
5b4-> Hits: 135, Late: 0, Early: 0, Misses: 0
5b5-> Hits: 59, Late: 0, Early: 0, Misses: 0
5b6-> Hits: 123, Late: 6, Early: 0, Misses: 7
5b7-> Hits: 479, Late: 0, Early: 0, Misses: 0
5b8-> Hits: 11883, Late: 120, Early: 0, Misses: 76
5b9-> Hits: 15463, Late: 423, Early: 0, Misses: 26
5bb-> Hits: 56, Late: 60, Early: 0, Misses: 166
5bc-> Hits: 28374, Late: 71, Early: 0, Misses: 0
5bf-> Hits: 115, Late: 0, Early: 0, Misses: 0
5c0-> Hits: 562, Late: 0, Early: 0, Misses: 0
5c2-> Hits: 306, Late: 0, Early: 0, Misses: 0
5c3-> Hits: 15264, Late: 368, Early: 0, Misses: 0
5c7-> Hits: 232, Late: 0, Early: 0, Misses: 0
5c8-> Hits: 37, Late: 0, Early: 0, Misses: 1
5ca-> Hits: 12054, Late: 30, Early: 0, Misses: 18
5cb-> Hits: 421, Late: 0, Early: 0, Misses: 0
5cd-> Hits: 44, Late: 0, Early: 0, Misses: 0
5ce-> Hits: 12931, Late: 47, Early: 0, Misses: 120
5d0-> Hits: 1644, Late: 0, Early: 0, Misses: 0
5d1-> Hits: 12865, Late: 61, Early: 0, Misses: 2904
5d2-> Hits: 59, Late: 0, Early: 0, Misses: 0
5d3-> Hits: 648, Late: 0, Early: 0, Misses: 0
5d4-> Hits: 165, Late: 0, Early: 0, Misses: 0
5d6-> Hits: 11066, Late: 763, Early: 0, Misses: 0
5d7-> Hits: 33038, Late: 2247, Early: 0, Misses: 6
5d8-> Hits: 165, Late: 0, Early: 0, Misses: 0
5d9-> Hits: 85, Late: 0, Early: 0, Misses: 0
5db-> Hits: 629, Late: 0, Early: 0, Misses: 0
5dc-> Hits: 224, Late: 0, Early: 0, Misses: 0
5de-> Hits: 1, Late: 0, Early: 0, Misses: 0
5df-> Hits: 2075, Late: 686, Early: 0, Misses: 1394
5e0-> Hits: 130104, Late: 865, Early: 0, Misses: 124
5e2-> Hits: 51, Late: 0, Early: 0, Misses: 0
5e3-> Hits: 13064, Late: 1, Early: 0, Misses: 0
5e4-> Hits: 88952, Late: 0, Early: 0, Misses: 0
5e6-> Hits: 28404, Late: 294, Early: 0, Misses: 0
5e7-> Hits: 59, Late: 0, Early: 0, Misses: 0
5e8-> Hits: 29615, Late: 2699, Early: 0, Misses: 31
5ea-> Hits: 1, Late: 0, Early: 0, Misses: 0
5eb-> Hits: 672, Late: 0, Early: 0, Misses: 0
5ec-> Hits: 338, Late: 1, Early: 0, Misses: 3
5ed-> Hits: 0, Late: 56, Early: 0, Misses: 0
5ee-> Hits: 353, Late: 0, Early: 0, Misses: 0
5ef-> Hits: 14, Late: 0, Early: 0, Misses: 2
5f0-> Hits: 181096, Late: 313, Early: 0, Misses: 0
5f2-> Hits: 55, Late: 0, Early: 0, Misses: 0
5f3-> Hits: 565, Late: 117, Early: 0, Misses: 0
5f4-> Hits: 402, Late: 0, Early: 0, Misses: 0
5f5-> Hits: 164, Late: 56, Early: 0, Misses: 0
5f6-> Hits: 169, Late: 4, Early: 0, Misses: 4
5f7-> Hits: 71, Late: 0, Early: 0, Misses: 1
5f8-> Hits: 115460, Late: 0, Early: 0, Misses: 0
5fb-> Hits: 11786, Late: 172, Early: 0, Misses: 0
5fe-> Hits: 68, Late: 3, Early: 0, Misses: 0
600-> Hits: 1706, Late: 0, Early: 0, Misses: 0
601-> Hits: 12891, Late: 0, Early: 0, Misses: 0
602-> Hits: 78, Late: 0, Early: 0, Misses: 0
603-> Hits: 205, Late: 17, Early: 0, Misses: 0
605-> Hits: 25859, Late: 60, Early: 0, Misses: 110
606-> Hits: 154, Late: 0, Early: 0, Misses: 0
607-> Hits: 1, Late: 0, Early: 0, Misses: 0
609-> Hits: 14991, Late: 0, Early: 0, Misses: 756
60b-> Hits: 43, Late: 0, Early: 0, Misses: 0
60c-> Hits: 1, Late: 0, Early: 0, Misses: 0
60e-> Hits: 81, Late: 0, Early: 0, Misses: 0
610-> Hits: 120953, Late: 243, Early: 0, Misses: 139
613-> Hits: 245, Late: 3, Early: 0, Misses: 6
614-> Hits: 13057, Late: 11, Early: 0, Misses: 42
615-> Hits: 168, Late: 57, Early: 0, Misses: 0
616-> Hits: 591, Late: 16, Early: 0, Misses: 1
618-> Hits: 168, Late: 0, Early: 0, Misses: 0
61a-> Hits: 15153, Late: 84, Early: 0, Misses: 0
61b-> Hits: 709, Late: 0, Early: 0, Misses: 0
61c-> Hits: 27810, Late: 0, Early: 0, Misses: 0
61e-> Hits: 168, Late: 0, Early: 0, Misses: 0
61f-> Hits: 1133, Late: 19, Early: 0, Misses: 110
622-> Hits: 14258, Late: 276, Early: 0, Misses: 112
623-> Hits: 1057, Late: 0, Early: 0, Misses: 12
624-> Hits: 2, Late: 2, Early: 0, Misses: 0
625-> Hits: 12925, Late: 3, Early: 0, Misses: 14
627-> Hits: 0, Late: 0, Early: 0, Misses: 56
628-> Hits: 48503, Late: 39, Early: 0, Misses: 4
629-> Hits: 1, Late: 1, Early: 0, Misses: 0
62d-> Hits: 70, Late: 0, Early: 0, Misses: 0
62e-> Hits: 32, Late: 0, Early: 0, Misses: 0
630-> Hits: 23955, Late: 350, Early: 0, Misses: 253
633-> Hits: 68, Late: 0, Early: 0, Misses: 0
634-> Hits: 60552, Late: 242, Early: 0, Misses: 1
635-> Hits: 10821, Late: 1006, Early: 0, Misses: 0
636-> Hits: 345, Late: 0, Early: 0, Misses: 0
637-> Hits: 11, Late: 123, Early: 0, Misses: 37
638-> Hits: 13425, Late: 39, Early: 0, Misses: 0
63b-> Hits: 50, Late: 0, Early: 0, Misses: 0
63c-> Hits: 117703, Late: 61, Early: 0, Misses: 0
63d-> Hits: 1277, Late: 58, Early: 0, Misses: 0
63e-> Hits: 52, Late: 0, Early: 0, Misses: 0
640-> Hits: 53288, Late: 40, Early: 0, Misses: 114
641-> Hits: 367, Late: 366, Early: 0, Misses: 115
642-> Hits: 11490, Late: 29, Early: 0, Misses: 284
644-> Hits: 55, Late: 0, Early: 0, Misses: 0
645-> Hits: 168, Late: 0, Early: 0, Misses: 0
646-> Hits: 2, Late: 0, Early: 0, Misses: 0
647-> Hits: 10805, Late: 1087, Early: 0, Misses: 0
648-> Hits: 70135, Late: 0, Early: 0, Misses: 0
649-> Hits: 495, Late: 0, Early: 0, Misses: 0
64a-> Hits: 110, Late: 0, Early: 0, Misses: 0
64b-> Hits: 14418, Late: 12, Early: 0, Misses: 2
64e-> Hits: 96, Late: 0, Early: 0, Misses: 0
650-> Hits: 33, Late: 0, Early: 0, Misses: 0
652-> Hits: 19, Late: 0, Early: 0, Misses: 0
653-> Hits: 12, Late: 0, Early: 0, Misses: 0
654-> Hits: 2, Late: 0, Early: 0, Misses: 0
657-> Hits: 428, Late: 4, Early: 0, Misses: 2
658-> Hits: 56, Late: 0, Early: 0, Misses: 0
65a-> Hits: 0, Late: 1, Early: 0, Misses: 0
65b-> Hits: 1228, Late: 63, Early: 0, Misses: 89
65c-> Hits: 12991, Late: 0, Early: 0, Misses: 119
65d-> Hits: 345, Late: 6, Early: 0, Misses: 0
65e-> Hits: 569, Late: 8, Early: 0, Misses: 0
65f-> Hits: 825, Late: 0, Early: 0, Misses: 0
660-> Hits: 346021, Late: 7630, Early: 0, Misses: 317
661-> Hits: 1302, Late: 0, Early: 0, Misses: 0
663-> Hits: 713, Late: 0, Early: 0, Misses: 0
664-> Hits: 32, Late: 0, Early: 0, Misses: 0
665-> Hits: 887, Late: 0, Early: 0, Misses: 0
667-> Hits: 730, Late: 0, Early: 0, Misses: 0
668-> Hits: 305595, Late: 24083, Early: 0, Misses: 328
66a-> Hits: 55, Late: 0, Early: 0, Misses: 0
66b-> Hits: 10, Late: 0, Early: 0, Misses: 0
66c-> Hits: 3, Late: 0, Early: 0, Misses: 0
66d-> Hits: 168, Late: 0, Early: 0, Misses: 0
66e-> Hits: 1272, Late: 56, Early: 0, Misses: 0
66f-> Hits: 31, Late: 0, Early: 0, Misses: 0
670-> Hits: 15624, Late: 1, Early: 0, Misses: 65
674-> Hits: 853, Late: 55, Early: 0, Misses: 99
675-> Hits: 1317, Late: 91, Early: 0, Misses: 0
678-> Hits: 163, Late: 0, Early: 0, Misses: 0
679-> Hits: 85, Late: 0, Early: 0, Misses: 0
67a-> Hits: 317, Late: 0, Early: 0, Misses: 0
67b-> Hits: 1272, Late: 0, Early: 0, Misses: 0
67e-> Hits: 56, Late: 0, Early: 0, Misses: 0
67f-> Hits: 58, Late: 1, Early: 0, Misses: 0
680-> Hits: 19300, Late: 0, Early: 0, Misses: 0
682-> Hits: 12048, Late: 0, Early: 0, Misses: 1080
683-> Hits: 5783, Late: 1, Early: 0, Misses: 38
684-> Hits: 171, Late: 0, Early: 0, Misses: 0
685-> Hits: 18, Late: 0, Early: 0, Misses: 0
686-> Hits: 117, Late: 0, Early: 0, Misses: 0
688-> Hits: 1955, Late: 0, Early: 0, Misses: 0
689-> Hits: 400, Late: 336, Early: 0, Misses: 112
68b-> Hits: 5782, Late: 1, Early: 0, Misses: 38
68c-> Hits: 12937, Late: 0, Early: 0, Misses: 57
68d-> Hits: 63, Late: 55, Early: 0, Misses: 47
68e-> Hits: 173, Late: 0, Early: 0, Misses: 11
68f-> Hits: 1250, Late: 1, Early: 0, Misses: 38
690-> Hits: 2017, Late: 5, Early: 0, Misses: 0
693-> Hits: 17, Late: 0, Early: 0, Misses: 0
694-> Hits: 12345, Late: 0, Early: 0, Misses: 0
695-> Hits: 57, Late: 0, Early: 0, Misses: 0
696-> Hits: 59, Late: 0, Early: 0, Misses: 0
697-> Hits: 5849, Late: 60, Early: 0, Misses: 88
698-> Hits: 182, Late: 0, Early: 0, Misses: 0
699-> Hits: 69, Late: 0, Early: 0, Misses: 0
69b-> Hits: 19829, Late: 0, Early: 0, Misses: 0
69c-> Hits: 209, Late: 0, Early: 0, Misses: 0
69e-> Hits: 34, Late: 17, Early: 0, Misses: 0
6a0-> Hits: 11415, Late: 608, Early: 0, Misses: 106
6a1-> Hits: 71, Late: 0, Early: 0, Misses: 0
6a3-> Hits: 13002, Late: 1, Early: 0, Misses: 19
6a5-> Hits: 439, Late: 0, Early: 0, Misses: 0
6a6-> Hits: 178, Late: 1, Early: 0, Misses: 0
6a8-> Hits: 163, Late: 0, Early: 0, Misses: 0
6a9-> Hits: 453, Late: 57, Early: 0, Misses: 0
6ab-> Hits: 164, Late: 0, Early: 0, Misses: 0
6ac-> Hits: 522, Late: 0, Early: 0, Misses: 0
6ad-> Hits: 105, Late: 0, Early: 0, Misses: 0
6af-> Hits: 123, Late: 0, Early: 0, Misses: 0
6b0-> Hits: 605, Late: 0, Early: 0, Misses: 0
6b1-> Hits: 341, Late: 0, Early: 0, Misses: 0
6b2-> Hits: 14560, Late: 0, Early: 0, Misses: 0
6b3-> Hits: 887, Late: 69, Early: 0, Misses: 10
6b4-> Hits: 370, Late: 396, Early: 0, Misses: 82
6b6-> Hits: 27, Late: 0, Early: 0, Misses: 0
6b8-> Hits: 174, Late: 114, Early: 0, Misses: 0
6b9-> Hits: 100, Late: 227, Early: 0, Misses: 13
6ba-> Hits: 13271, Late: 0, Early: 0, Misses: 0
6bf-> Hits: 171, Late: 0, Early: 0, Misses: 0
6c0-> Hits: 0, Late: 57, Early: 0, Misses: 0
6c2-> Hits: 21, Late: 0, Early: 0, Misses: 0
6c5-> Hits: 226, Late: 0, Early: 0, Misses: 0
6c6-> Hits: 49, Late: 0, Early: 0, Misses: 0
6c7-> Hits: 48, Late: 0, Early: 0, Misses: 0
6c8-> Hits: 677, Late: 0, Early: 0, Misses: 0
6c9-> Hits: 1097, Late: 332, Early: 0, Misses: 103
6cd-> Hits: 0, Late: 57, Early: 0, Misses: 0
6cf-> Hits: 361, Late: 0, Early: 0, Misses: 0
6d0-> Hits: 107775, Late: 2046, Early: 0, Misses: 1
6d1-> Hits: 34, Late: 0, Early: 0, Misses: 0
6d2-> Hits: 22, Late: 0, Early: 0, Misses: 60
6d3-> Hits: 12, Late: 0, Early: 0, Misses: 44
6d4-> Hits: 70894, Late: 73, Early: 0, Misses: 139
6d6-> Hits: 16, Late: 0, Early: 0, Misses: 0
6d8-> Hits: 63, Late: 0, Early: 0, Misses: 0
6d9-> Hits: 340, Late: 0, Early: 0, Misses: 0
6da-> Hits: 5803, Late: 0, Early: 0, Misses: 1
6db-> Hits: 49, Late: 0, Early: 0, Misses: 0
6dd-> Hits: 649, Late: 0, Early: 0, Misses: 0
6df-> Hits: 30974, Late: 15765, Early: 0, Misses: 158
6e0-> Hits: 15783, Late: 247, Early: 0, Misses: 60
6e1-> Hits: 22, Late: 0, Early: 0, Misses: 0
6e3-> Hits: 2241, Late: 172, Early: 0, Misses: 1
6e4-> Hits: 171, Late: 0, Early: 0, Misses: 0
6e5-> Hits: 1495, Late: 0, Early: 0, Misses: 0
6e8-> Hits: 0, Late: 0, Early: 0, Misses: 60
6e9-> Hits: 252, Late: 169, Early: 0, Misses: 56
6eb-> Hits: 84, Late: 42, Early: 0, Misses: 46
6ee-> Hits: 1699, Late: 0, Early: 0, Misses: 0
6f0-> Hits: 49028, Late: 404, Early: 0, Misses: 55
6f1-> Hits: 345, Late: 0, Early: 0, Misses: 0
6f2-> Hits: 394, Late: 0, Early: 0, Misses: 0
6f3-> Hits: 1214, Late: 1, Early: 0, Misses: 38
6f5-> Hits: 20222, Late: 2, Early: 0, Misses: 0
6f7-> Hits: 53, Late: 0, Early: 0, Misses: 0
6f8-> Hits: 0, Late: 57, Early: 0, Misses: 0
6f9-> Hits: 27956, Late: 67, Early: 0, Misses: 454
6fa-> Hits: 95, Late: 0, Early: 0, Misses: 1
6fb-> Hits: 1206, Late: 0, Early: 0, Misses: 0
6fd-> Hits: 126, Late: 0, Early: 0, Misses: 0
6fe-> Hits: 52, Late: 0, Early: 0, Misses: 0
6ff-> Hits: 10, Late: 0, Early: 0, Misses: 0
700-> Hits: 36, Late: 0, Early: 0, Misses: 0
701-> Hits: 1184, Late: 93, Early: 0, Misses: 28
702-> Hits: 20163, Late: 58, Early: 0, Misses: 0
703-> Hits: 1219, Late: 8, Early: 0, Misses: 39
704-> Hits: 57, Late: 0, Early: 0, Misses: 0
705-> Hits: 660, Late: 0, Early: 0, Misses: 0
706-> Hits: 1, Late: 0, Early: 0, Misses: 0
707-> Hits: 13081, Late: 0, Early: 0, Misses: 0
708-> Hits: 53, Late: 0, Early: 0, Misses: 0
709-> Hits: 1, Late: 0, Early: 0, Misses: 0
70b-> Hits: 344, Late: 1, Early: 0, Misses: 55
70c-> Hits: 57, Late: 0, Early: 0, Misses: 0
70d-> Hits: 57, Late: 0, Early: 0, Misses: 0
70e-> Hits: 373, Late: 1, Early: 0, Misses: 0
70f-> Hits: 207, Late: 0, Early: 0, Misses: 0
710-> Hits: 20361, Late: 4293, Early: 0, Misses: 0
711-> Hits: 13810, Late: 0, Early: 0, Misses: 0
713-> Hits: 746, Late: 0, Early: 0, Misses: 0
714-> Hits: 1, Late: 1, Early: 0, Misses: 0
715-> Hits: 57, Late: 0, Early: 0, Misses: 0
716-> Hits: 92, Late: 0, Early: 0, Misses: 0
717-> Hits: 6, Late: 0, Early: 0, Misses: 0
718-> Hits: 21198, Late: 3258, Early: 0, Misses: 0
719-> Hits: 249, Late: 0, Early: 0, Misses: 0
71a-> Hits: 44, Late: 0, Early: 0, Misses: 0
71b-> Hits: 72, Late: 0, Early: 0, Misses: 0
71d-> Hits: 637, Late: 0, Early: 0, Misses: 0
71f-> Hits: 79, Late: 34, Early: 0, Misses: 17
720-> Hits: 10816, Late: 0, Early: 0, Misses: 0
722-> Hits: 864, Late: 0, Early: 0, Misses: 0
723-> Hits: 943, Late: 0, Early: 0, Misses: 0
724-> Hits: 20652, Late: 4330, Early: 0, Misses: 0
725-> Hits: 44, Late: 0, Early: 0, Misses: 0
726-> Hits: 25, Late: 0, Early: 0, Misses: 0
727-> Hits: 619, Late: 0, Early: 0, Misses: 0
729-> Hits: 190, Late: 0, Early: 0, Misses: 0
72a-> Hits: 105, Late: 0, Early: 0, Misses: 0
72c-> Hits: 353, Late: 0, Early: 0, Misses: 0
72d-> Hits: 43, Late: 8, Early: 0, Misses: 18
72e-> Hits: 0, Late: 57, Early: 0, Misses: 0
72f-> Hits: 239, Late: 0, Early: 0, Misses: 0
730-> Hits: 293, Late: 0, Early: 0, Misses: 1
731-> Hits: 161, Late: 0, Early: 0, Misses: 20
732-> Hits: 3408, Late: 52, Early: 0, Misses: 184
733-> Hits: 248, Late: 0, Early: 0, Misses: 0
734-> Hits: 60, Late: 0, Early: 0, Misses: 0
736-> Hits: 57, Late: 0, Early: 0, Misses: 0
73a-> Hits: 197, Late: 1, Early: 0, Misses: 56
73b-> Hits: 730, Late: 57, Early: 0, Misses: 0
73c-> Hits: 18, Late: 42, Early: 0, Misses: 0
73d-> Hits: 617, Late: 57, Early: 0, Misses: 55
740-> Hits: 50620, Late: 68, Early: 0, Misses: 0
741-> Hits: 60, Late: 0, Early: 0, Misses: 0
742-> Hits: 8, Late: 8, Early: 0, Misses: 0
743-> Hits: 98, Late: 0, Early: 0, Misses: 0
744-> Hits: 35145, Late: 96, Early: 0, Misses: 1845
745-> Hits: 23, Late: 0, Early: 0, Misses: 0
746-> Hits: 1, Late: 56, Early: 0, Misses: 0
747-> Hits: 262, Late: 0, Early: 0, Misses: 0
748-> Hits: 111, Late: 0, Early: 0, Misses: 0
749-> Hits: 284, Late: 0, Early: 0, Misses: 0
74b-> Hits: 60, Late: 0, Early: 0, Misses: 0
74c-> Hits: 168, Late: 0, Early: 0, Misses: 0
74e-> Hits: 57, Late: 0, Early: 0, Misses: 0
750-> Hits: 12912, Late: 57, Early: 0, Misses: 0
751-> Hits: 94, Late: 0, Early: 0, Misses: 0
752-> Hits: 20880, Late: 1, Early: 0, Misses: 0
753-> Hits: 7, Late: 1, Early: 0, Misses: 49
754-> Hits: 57, Late: 0, Early: 0, Misses: 0
755-> Hits: 419, Late: 1, Early: 0, Misses: 1
757-> Hits: 73, Late: 0, Early: 0, Misses: 0
758-> Hits: 168, Late: 0, Early: 0, Misses: 0
759-> Hits: 315, Late: 0, Early: 0, Misses: 0
75a-> Hits: 19757, Late: 0, Early: 0, Misses: 0
75b-> Hits: 187, Late: 56, Early: 0, Misses: 0
75f-> Hits: 3708, Late: 0, Early: 0, Misses: 0
760-> Hits: 660, Late: 0, Early: 0, Misses: 0
761-> Hits: 307, Late: 0, Early: 0, Misses: 0
762-> Hits: 5821, Late: 0, Early: 0, Misses: 0
763-> Hits: 225, Late: 0, Early: 0, Misses: 0
764-> Hits: 1183, Late: 0, Early: 0, Misses: 0
766-> Hits: 127, Late: 3, Early: 0, Misses: 53
768-> Hits: 12517, Late: 0, Early: 0, Misses: 0
76a-> Hits: 91, Late: 0, Early: 0, Misses: 0
76b-> Hits: 124, Late: 0, Early: 0, Misses: 0
76c-> Hits: 57, Late: 0, Early: 0, Misses: 0
76d-> Hits: 439, Late: 0, Early: 0, Misses: 8
76e-> Hits: 4114, Late: 58, Early: 0, Misses: 1203
76f-> Hits: 182, Late: 1, Early: 0, Misses: 0
770-> Hits: 584, Late: 1, Early: 0, Misses: 59
772-> Hits: 103, Late: 0, Early: 0, Misses: 0
773-> Hits: 566, Late: 0, Early: 0, Misses: 0
775-> Hits: 311, Late: 0, Early: 0, Misses: 0
776-> Hits: 111, Late: 0, Early: 0, Misses: 0
777-> Hits: 47, Late: 0, Early: 0, Misses: 59
778-> Hits: 977, Late: 0, Early: 0, Misses: 0
77a-> Hits: 42, Late: 0, Early: 0, Misses: 0
77b-> Hits: 348, Late: 0, Early: 0, Misses: 0
77c-> Hits: 238, Late: 0, Early: 0, Misses: 1
77d-> Hits: 597, Late: 0, Early: 0, Misses: 0
77e-> Hits: 232, Late: 0, Early: 0, Misses: 0
780-> Hits: 13621, Late: 0, Early: 0, Misses: 0
781-> Hits: 117, Late: 229, Early: 0, Misses: 0
782-> Hits: 39, Late: 6, Early: 0, Misses: 0
783-> Hits: 131, Late: 12, Early: 0, Misses: 23
784-> Hits: 117, Late: 3, Early: 0, Misses: 0
785-> Hits: 337, Late: 0, Early: 0, Misses: 55
786-> Hits: 187, Late: 0, Early: 0, Misses: 0
787-> Hits: 339, Late: 0, Early: 0, Misses: 0
788-> Hits: 716, Late: 0, Early: 0, Misses: 0
789-> Hits: 396, Late: 57, Early: 0, Misses: 0
78a-> Hits: 193, Late: 0, Early: 0, Misses: 1
78b-> Hits: 409, Late: 32, Early: 0, Misses: 0
78d-> Hits: 59, Late: 0, Early: 0, Misses: 0
78e-> Hits: 460, Late: 0, Early: 0, Misses: 0
78f-> Hits: 101, Late: 0, Early: 0, Misses: 27
790-> Hits: 11851, Late: 0, Early: 0, Misses: 0
794-> Hits: 7, Late: 0, Early: 0, Misses: 0
795-> Hits: 448, Late: 0, Early: 0, Misses: 0
796-> Hits: 466, Late: 0, Early: 0, Misses: 0
797-> Hits: 9499, Late: 0, Early: 0, Misses: 113
798-> Hits: 70, Late: 0, Early: 0, Misses: 1
799-> Hits: 151, Late: 0, Early: 0, Misses: 0
79a-> Hits: 151, Late: 0, Early: 0, Misses: 0
79c-> Hits: 72, Late: 0, Early: 0, Misses: 0
79d-> Hits: 8384, Late: 69, Early: 0, Misses: 0
79e-> Hits: 393, Late: 30, Early: 0, Misses: 0
79f-> Hits: 272, Late: 0, Early: 0, Misses: 56
7a0-> Hits: 14971, Late: 3, Early: 0, Misses: 0
[...]
e0c-> Hits: 56, Late: 0, Early: 0, Misses: 0
e0d-> Hits: 13272, Late: 76, Early: 0, Misses: 104
e0e-> Hits: 9, Late: 0, Early: 0, Misses: 0
e0f-> Hits: 0, Late: 57, Early: 0, Misses: 0
e11-> Hits: 117, Late: 0, Early: 0, Misses: 0
e12-> Hits: 551, Late: 23, Early: 0, Misses: 0
e13-> Hits: 2, Late: 0, Early: 0, Misses: 55
e16-> Hits: 389, Late: 0, Early: 0, Misses: 3
e18-> Hits: 140, Late: 56, Early: 0, Misses: 29
e1a-> Hits: 4423, Late: 224, Early: 0, Misses: 50
e1c-> Hits: 64, Late: 0, Early: 0, Misses: 0
e1e-> Hits: 416, Late: 0, Early: 0, Misses: 0
e20-> Hits: 13014, Late: 768, Early: 0, Misses: 0
e21-> Hits: 73, Late: 0, Early: 0, Misses: 0
e22-> Hits: 154, Late: 0, Early: 0, Misses: 0
e24-> Hits: 367, Late: 9, Early: 0, Misses: 3
e25-> Hits: 34, Late: 0, Early: 0, Misses: 0
e27-> Hits: 107, Late: 0, Early: 0, Misses: 0
e28-> Hits: 479, Late: 2, Early: 0, Misses: 53
e29-> Hits: 7651, Late: 0, Early: 0, Misses: 74
e2a-> Hits: 695, Late: 0, Early: 0, Misses: 0
e2c-> Hits: 166, Late: 1, Early: 0, Misses: 4
e2d-> Hits: 1048, Late: 13, Early: 0, Misses: 0
e2f-> Hits: 11, Late: 0, Early: 0, Misses: 0
e30-> Hits: 171, Late: 0, Early: 0, Misses: 0
e31-> Hits: 9276, Late: 0, Early: 0, Misses: 5
e32-> Hits: 1104, Late: 15, Early: 0, Misses: 124
e33-> Hits: 56, Late: 0, Early: 0, Misses: 0
e34-> Hits: 211, Late: 0, Early: 0, Misses: 0
e35-> Hits: 583, Late: 0, Early: 0, Misses: 0
e36-> Hits: 316, Late: 2, Early: 0, Misses: 131
e3c-> Hits: 0, Late: 57, Early: 0, Misses: 0
e3d-> Hits: 170, Late: 0, Early: 0, Misses: 0
e3e-> Hits: 8507, Late: 0, Early: 0, Misses: 0
e3f-> Hits: 101, Late: 226, Early: 0, Misses: 5
e40-> Hits: 142350, Late: 237, Early: 0, Misses: 419
e41-> Hits: 36, Late: 0, Early: 0, Misses: 0
e43-> Hits: 8393, Late: 0, Early: 0, Misses: 0
e44-> Hits: 237, Late: 15, Early: 0, Misses: 41
e45-> Hits: 75, Late: 0, Early: 0, Misses: 0
e49-> Hits: 31, Late: 0, Early: 0, Misses: 0
e4b-> Hits: 56, Late: 0, Early: 0, Misses: 0
e4c-> Hits: 22079, Late: 0, Early: 0, Misses: 0
e4d-> Hits: 596, Late: 0, Early: 0, Misses: 0
e4e-> Hits: 57, Late: 0, Early: 0, Misses: 0
e4f-> Hits: 270, Late: 0, Early: 0, Misses: 0
e50-> Hits: 7595, Late: 0, Early: 0, Misses: 0
e51-> Hits: 6667, Late: 114, Early: 0, Misses: 5
e53-> Hits: 61, Late: 0, Early: 0, Misses: 0
e54-> Hits: 282, Late: 2, Early: 0, Misses: 61
e55-> Hits: 7357, Late: 0, Early: 0, Misses: 0
e58-> Hits: 261, Late: 57, Early: 0, Misses: 11
e59-> Hits: 138, Late: 0, Early: 0, Misses: 0
e5a-> Hits: 6307, Late: 86, Early: 0, Misses: 0
e5b-> Hits: 331, Late: 169, Early: 0, Misses: 1
e5d-> Hits: 6907, Late: 0, Early: 0, Misses: 0
e5e-> Hits: 171, Late: 0, Early: 0, Misses: 0
e61-> Hits: 6331, Late: 436, Early: 0, Misses: 50
e62-> Hits: 146, Late: 17, Early: 0, Misses: 38
e64-> Hits: 61238, Late: 0, Early: 0, Misses: 0
e65-> Hits: 243, Late: 0, Early: 0, Misses: 0
e66-> Hits: 5598, Late: 0, Early: 0, Misses: 0
e67-> Hits: 662, Late: 0, Early: 0, Misses: 0
e69-> Hits: 8981, Late: 1107, Early: 0, Misses: 0
e6a-> Hits: 1, Late: 0, Early: 0, Misses: 0
e6b-> Hits: 50, Late: 0, Early: 0, Misses: 0
e6d-> Hits: 9075, Late: 0, Early: 0, Misses: 0
e6f-> Hits: 436, Late: 0, Early: 0, Misses: 0
e70-> Hits: 44253, Late: 2059, Early: 0, Misses: 3440
e71-> Hits: 57, Late: 0, Early: 0, Misses: 0
e72-> Hits: 57, Late: 0, Early: 0, Misses: 0
e73-> Hits: 270, Late: 0, Early: 0, Misses: 0
e74-> Hits: 48482, Late: 57, Early: 0, Misses: 13
e76-> Hits: 57, Late: 0, Early: 0, Misses: 0
e77-> Hits: 9, Late: 0, Early: 0, Misses: 0
e78-> Hits: 57, Late: 0, Early: 0, Misses: 0
e79-> Hits: 156, Late: 6, Early: 0, Misses: 63
e7a-> Hits: 17968, Late: 1, Early: 0, Misses: 0
e7b-> Hits: 3, Late: 56, Early: 0, Misses: 0
e7d-> Hits: 522, Late: 0, Early: 0, Misses: 0
e7f-> Hits: 493, Late: 0, Early: 0, Misses: 1
e83-> Hits: 19842, Late: 324, Early: 0, Misses: 248
e84-> Hits: 44653, Late: 62, Early: 0, Misses: 60
e85-> Hits: 57, Late: 0, Early: 0, Misses: 0
e86-> Hits: 314, Late: 58, Early: 0, Misses: 0
e87-> Hits: 17, Late: 1, Early: 0, Misses: 6
e88-> Hits: 8, Late: 0, Early: 0, Misses: 0
e89-> Hits: 0, Late: 57, Early: 0, Misses: 0
e8b-> Hits: 4395, Late: 366, Early: 0, Misses: 0
e8c-> Hits: 171, Late: 0, Early: 0, Misses: 0
e8d-> Hits: 85, Late: 239, Early: 0, Misses: 0
e8e-> Hits: 54, Late: 0, Early: 0, Misses: 2
e8f-> Hits: 56, Late: 0, Early: 0, Misses: 0
e90-> Hits: 57, Late: 0, Early: 0, Misses: 0
e92-> Hits: 51, Late: 271, Early: 0, Misses: 0
e93-> Hits: 3785, Late: 322, Early: 0, Misses: 0
e94-> Hits: 56, Late: 56, Early: 0, Misses: 0
e95-> Hits: 63, Late: 0, Early: 0, Misses: 59
e96-> Hits: 57, Late: 0, Early: 0, Misses: 0
e97-> Hits: 3902, Late: 52, Early: 0, Misses: 4
e98-> Hits: 594, Late: 0, Early: 0, Misses: 0
e9a-> Hits: 62, Late: 301, Early: 0, Misses: 0
e9b-> Hits: 59, Late: 0, Early: 0, Misses: 0
e9c-> Hits: 56, Late: 0, Early: 0, Misses: 0
e9d-> Hits: 78, Late: 0, Early: 0, Misses: 0
e9e-> Hits: 57, Late: 0, Early: 0, Misses: 0
e9f-> Hits: 178, Late: 8, Early: 0, Misses: 1
ea0-> Hits: 17621, Late: 0, Early: 0, Misses: 57
ea1-> Hits: 339, Late: 0, Early: 0, Misses: 0
ea3-> Hits: 356, Late: 55, Early: 0, Misses: 0
ea4-> Hits: 56, Late: 0, Early: 0, Misses: 0
ea5-> Hits: 18784, Late: 0, Early: 0, Misses: 0
ea7-> Hits: 105, Late: 92, Early: 0, Misses: 0
ea8-> Hits: 0, Late: 340, Early: 0, Misses: 0
ea9-> Hits: 14747, Late: 6, Early: 0, Misses: 51
eae-> Hits: 1, Late: 0, Early: 0, Misses: 0
eaf-> Hits: 418, Late: 0, Early: 0, Misses: 0
eb0-> Hits: 11806, Late: 872, Early: 0, Misses: 0
eb1-> Hits: 57, Late: 0, Early: 0, Misses: 0
eb2-> Hits: 18178, Late: 30, Early: 0, Misses: 59
eb3-> Hits: 118, Late: 0, Early: 0, Misses: 0
eb4-> Hits: 56, Late: 0, Early: 0, Misses: 1
eb5-> Hits: 11294, Late: 948, Early: 0, Misses: 77
eb6-> Hits: 13, Late: 57, Early: 0, Misses: 44
eb8-> Hits: 432, Late: 0, Early: 0, Misses: 0
eb9-> Hits: 56, Late: 0, Early: 0, Misses: 0
ebb-> Hits: 24, Late: 0, Early: 0, Misses: 0
ebc-> Hits: 113, Late: 1, Early: 0, Misses: 37
ebd-> Hits: 57, Late: 0, Early: 0, Misses: 0
ebe-> Hits: 57, Late: 0, Early: 0, Misses: 0
ebf-> Hits: 57, Late: 0, Early: 0, Misses: 0
ec0-> Hits: 44, Late: 0, Early: 0, Misses: 0
ec1-> Hits: 91, Late: 0, Early: 0, Misses: 22
ec2-> Hits: 11829, Late: 449, Early: 0, Misses: 1
ec3-> Hits: 58, Late: 37, Early: 0, Misses: 0
ec4-> Hits: 8774, Late: 19, Early: 0, Misses: 61
ec5-> Hits: 518, Late: 0, Early: 0, Misses: 0
ec6-> Hits: 109, Late: 0, Early: 0, Misses: 4
ec7-> Hits: 11103, Late: 1028, Early: 0, Misses: 0
ec8-> Hits: 0, Late: 56, Early: 0, Misses: 0
ec9-> Hits: 18688, Late: 189, Early: 0, Misses: 3
eca-> Hits: 25, Late: 15, Early: 0, Misses: 0
ecb-> Hits: 94, Late: 110, Early: 0, Misses: 135
ecd-> Hits: 191, Late: 7, Early: 0, Misses: 0
ecf-> Hits: 96, Late: 0, Early: 0, Misses: 0
ed0-> Hits: 16358, Late: 0, Early: 0, Misses: 0
ed1-> Hits: 0, Late: 1, Early: 0, Misses: 55
ed2-> Hits: 1, Late: 0, Early: 0, Misses: 0
ed4-> Hits: 16470, Late: 0, Early: 0, Misses: 0
ed5-> Hits: 0, Late: 0, Early: 0, Misses: 1
ed6-> Hits: 3, Late: 54, Early: 0, Misses: 0
ed9-> Hits: 1, Late: 0, Early: 0, Misses: 0
eda-> Hits: 172, Late: 0, Early: 0, Misses: 0
edb-> Hits: 51, Late: 0, Early: 0, Misses: 0
ede-> Hits: 625, Late: 0, Early: 0, Misses: 0
edf-> Hits: 18313, Late: 172, Early: 0, Misses: 21
ee2-> Hits: 2, Late: 0, Early: 0, Misses: 56
ee3-> Hits: 0, Late: 1, Early: 0, Misses: 55
ee4-> Hits: 650, Late: 12, Early: 0, Misses: 0
ee6-> Hits: 10, Late: 0, Early: 0, Misses: 0
ee8-> Hits: 53, Late: 0, Early: 0, Misses: 0
ee9-> Hits: 17680, Late: 76, Early: 0, Misses: 577
eea-> Hits: 151, Late: 0, Early: 0, Misses: 0
eeb-> Hits: 4, Late: 1, Early: 0, Misses: 0
eee-> Hits: 283, Late: 0, Early: 0, Misses: 0
ef0-> Hits: 12855, Late: 0, Early: 0, Misses: 56
ef1-> Hits: 0, Late: 56, Early: 0, Misses: 0
ef2-> Hits: 605, Late: 0, Early: 0, Misses: 0
ef5-> Hits: 12679, Late: 59, Early: 0, Misses: 0
ef6-> Hits: 0, Late: 1, Early: 0, Misses: 0
ef8-> Hits: 308, Late: 78, Early: 0, Misses: 0
ef9-> Hits: 4744, Late: 375, Early: 0, Misses: 0
efa-> Hits: 317, Late: 0, Early: 0, Misses: 0
efc-> Hits: 57, Late: 0, Early: 0, Misses: 0
efe-> Hits: 1235, Late: 359, Early: 0, Misses: 0
eff-> Hits: 113, Late: 0, Early: 0, Misses: 0
f00-> Hits: 32100, Late: 862, Early: 0, Misses: 106
f01-> Hits: 12526, Late: 1, Early: 0, Misses: 0
f03-> Hits: 22228, Late: 515, Early: 0, Misses: 0
f06-> Hits: 83, Late: 0, Early: 0, Misses: 0
f07-> Hits: 4746, Late: 321, Early: 0, Misses: 4
f0a-> Hits: 64, Late: 0, Early: 0, Misses: 0
f0b-> Hits: 4493, Late: 359, Early: 0, Misses: 0
f0c-> Hits: 1159, Late: 437, Early: 0, Misses: 0
f0d-> Hits: 59, Late: 0, Early: 0, Misses: 0
f0e-> Hits: 102, Late: 1, Early: 0, Misses: 55
f0f-> Hits: 0, Late: 0, Early: 0, Misses: 56
f10-> Hits: 179841, Late: 3549, Early: 0, Misses: 0
f12-> Hits: 135, Late: 18, Early: 0, Misses: 0
f13-> Hits: 4311, Late: 67, Early: 0, Misses: 0
f17-> Hits: 212, Late: 0, Early: 0, Misses: 0
f1a-> Hits: 5077, Late: 77, Early: 0, Misses: 0
f1d-> Hits: 228, Late: 0, Early: 0, Misses: 0
f1e-> Hits: 1, Late: 0, Early: 0, Misses: 0
f20-> Hits: 13700, Late: 0, Early: 0, Misses: 0
f21-> Hits: 5, Late: 0, Early: 0, Misses: 45
f22-> Hits: 192, Late: 0, Early: 0, Misses: 0
f25-> Hits: 40, Late: 0, Early: 0, Misses: 0
f26-> Hits: 11877, Late: 1, Early: 0, Misses: 88
f27-> Hits: 1198, Late: 0, Early: 0, Misses: 0
f28-> Hits: 1440, Late: 0, Early: 0, Misses: 7
f29-> Hits: 1437, Late: 0, Early: 0, Misses: 0
f2a-> Hits: 112, Late: 1, Early: 0, Misses: 39
f2b-> Hits: 1695, Late: 0, Early: 0, Misses: 0
f2c-> Hits: 12739, Late: 340, Early: 0, Misses: 0
f2d-> Hits: 1906, Late: 49, Early: 0, Misses: 56
f2f-> Hits: 168, Late: 0, Early: 0, Misses: 0
f30-> Hits: 20235, Late: 0, Early: 0, Misses: 15
f31-> Hits: 535, Late: 1, Early: 0, Misses: 61
f32-> Hits: 23, Late: 1, Early: 0, Misses: 0
f34-> Hits: 57, Late: 0, Early: 0, Misses: 0
f35-> Hits: 171, Late: 0, Early: 0, Misses: 0
f39-> Hits: 90, Late: 0, Early: 0, Misses: 0
f3a-> Hits: 128, Late: 19, Early: 0, Misses: 0
f3c-> Hits: 0, Late: 0, Early: 0, Misses: 56
f3d-> Hits: 99, Late: 31, Early: 0, Misses: 0
f41-> Hits: 125, Late: 0, Early: 0, Misses: 0
f42-> Hits: 59, Late: 0, Early: 0, Misses: 0
f43-> Hits: 21113, Late: 0, Early: 0, Misses: 0
f45-> Hits: 91, Late: 30, Early: 0, Misses: 0
f47-> Hits: 99, Late: 0, Early: 0, Misses: 0
f49-> Hits: 121, Late: 0, Early: 0, Misses: 0
f4b-> Hits: 4484, Late: 360, Early: 0, Misses: 0
f4c-> Hits: 168, Late: 0, Early: 0, Misses: 0
f4d-> Hits: 57, Late: 0, Early: 0, Misses: 0
f4e-> Hits: 48, Late: 0, Early: 0, Misses: 0
f4f-> Hits: 1, Late: 0, Early: 0, Misses: 0
f50-> Hits: 1400, Late: 0, Early: 0, Misses: 104
f51-> Hits: 111, Late: 0, Early: 0, Misses: 0
f53-> Hits: 2994, Late: 285, Early: 0, Misses: 0
f55-> Hits: 981, Late: 0, Early: 0, Misses: 0
f56-> Hits: 0, Late: 57, Early: 0, Misses: 0
f57-> Hits: 5044, Late: 4, Early: 0, Misses: 0
f59-> Hits: 28, Late: 0, Early: 0, Misses: 0
f5a-> Hits: 884, Late: 52, Early: 0, Misses: 0
f5b-> Hits: 448, Late: 0, Early: 0, Misses: 0
f5c-> Hits: 3, Late: 0, Early: 0, Misses: 0
f5d-> Hits: 56, Late: 0, Early: 0, Misses: 0
f5f-> Hits: 168, Late: 0, Early: 0, Misses: 0
f60-> Hits: 6300, Late: 0, Early: 0, Misses: 0
f61-> Hits: 526, Late: 0, Early: 0, Misses: 0
f63-> Hits: 250, Late: 15, Early: 0, Misses: 0
f64-> Hits: 2242, Late: 6, Early: 0, Misses: 0
f65-> Hits: 3, Late: 0, Early: 0, Misses: 0
f68-> Hits: 56, Late: 0, Early: 0, Misses: 0
f69-> Hits: 6271, Late: 1, Early: 0, Misses: 50
f6b-> Hits: 56, Late: 0, Early: 0, Misses: 0
f6d-> Hits: 56, Late: 0, Early: 0, Misses: 0
f6e-> Hits: 5870, Late: 56, Early: 0, Misses: 0
f6f-> Hits: 56, Late: 0, Early: 0, Misses: 0
f70-> Hits: 35636, Late: 756, Early: 0, Misses: 77
f71-> Hits: 1258, Late: 1, Early: 0, Misses: 0
f72-> Hits: 504, Late: 0, Early: 0, Misses: 0
f73-> Hits: 114, Late: 0, Early: 0, Misses: 0
f74-> Hits: 36799, Late: 0, Early: 0, Misses: 0
f77-> Hits: 3, Late: 0, Early: 0, Misses: 0
f78-> Hits: 36213, Late: 56, Early: 0, Misses: 0
f7a-> Hits: 52, Late: 1, Early: 0, Misses: 0
f7b-> Hits: 56, Late: 56, Early: 0, Misses: 0
f80-> Hits: 21679, Late: 1269, Early: 0, Misses: 58
f81-> Hits: 110, Late: 0, Early: 0, Misses: 55
f83-> Hits: 24011, Late: 1, Early: 0, Misses: 0
f84-> Hits: 8785, Late: 0, Early: 0, Misses: 78
f85-> Hits: 12228, Late: 19, Early: 0, Misses: 0
f87-> Hits: 14, Late: 2, Early: 0, Misses: 0
f88-> Hits: 101, Late: 0, Early: 0, Misses: 0
f89-> Hits: 178, Late: 0, Early: 0, Misses: 55
f8b-> Hits: 16944, Late: 347, Early: 0, Misses: 87
f8c-> Hits: 86, Late: 0, Early: 0, Misses: 0
f90-> Hits: 9755, Late: 0, Early: 0, Misses: 0
f91-> Hits: 56, Late: 0, Early: 0, Misses: 0
f92-> Hits: 0, Late: 1, Early: 0, Misses: 0
f93-> Hits: 15568, Late: 1, Early: 0, Misses: 87
f94-> Hits: 15757, Late: 6, Early: 0, Misses: 0
f95-> Hits: 57, Late: 0, Early: 0, Misses: 0
f96-> Hits: 0, Late: 56, Early: 0, Misses: 0
f97-> Hits: 56, Late: 0, Early: 0, Misses: 0
f98-> Hits: 56, Late: 0, Early: 0, Misses: 0
f99-> Hits: 24214, Late: 0, Early: 0, Misses: 0
f9d-> Hits: 171, Late: 0, Early: 0, Misses: 0
f9e-> Hits: 113, Late: 0, Early: 0, Misses: 0
f9f-> Hits: 1, Late: 0, Early: 0, Misses: 0
fa0-> Hits: 13327, Late: 40, Early: 0, Misses: 1
fa1-> Hits: 13742, Late: 644, Early: 0, Misses: 1955
fa2-> Hits: 1, Late: 0, Early: 0, Misses: 0
fa3-> Hits: 452, Late: 0, Early: 0, Misses: 0
fa4-> Hits: 777, Late: 36, Early: 0, Misses: 17
fa5-> Hits: 686, Late: 0, Early: 0, Misses: 0
fa7-> Hits: 2, Late: 0, Early: 0, Misses: 0
fa8-> Hits: 600, Late: 64, Early: 0, Misses: 0
fa9-> Hits: 8867, Late: 59, Early: 0, Misses: 0
faa-> Hits: 1, Late: 0, Early: 0, Misses: 0
fab-> Hits: 52, Late: 0, Early: 0, Misses: 0
fac-> Hits: 1874, Late: 1, Early: 0, Misses: 0
fad-> Hits: 684, Late: 0, Early: 0, Misses: 57
fae-> Hits: 135, Late: 17, Early: 0, Misses: 0
fb0-> Hits: 512, Late: 0, Early: 0, Misses: 0
fb1-> Hits: 11908, Late: 430, Early: 0, Misses: 0
fb3-> Hits: 310, Late: 0, Early: 0, Misses: 0
fb4-> Hits: 15699, Late: 180, Early: 0, Misses: 427
fb5-> Hits: 249, Late: 0, Early: 0, Misses: 0
fb6-> Hits: 10, Late: 0, Early: 0, Misses: 0
fb7-> Hits: 232, Late: 0, Early: 0, Misses: 0
fb8-> Hits: 17, Late: 0, Early: 0, Misses: 0
fb9-> Hits: 1, Late: 1, Early: 0, Misses: 56
fba-> Hits: 59, Late: 0, Early: 0, Misses: 0
fbb-> Hits: 40, Late: 0, Early: 0, Misses: 0
fbc-> Hits: 220, Late: 3, Early: 0, Misses: 0
fbe-> Hits: 8, Late: 0, Early: 0, Misses: 0
fbf-> Hits: 443, Late: 0, Early: 0, Misses: 0
fc1-> Hits: 394, Late: 1, Early: 0, Misses: 61
fc2-> Hits: 43, Late: 0, Early: 0, Misses: 0
fc4-> Hits: 14938, Late: 12, Early: 0, Misses: 55
fc5-> Hits: 59, Late: 0, Early: 0, Misses: 0
fc6-> Hits: 10253, Late: 10, Early: 0, Misses: 0
fc7-> Hits: 29, Late: 0, Early: 0, Misses: 0
fc8-> Hits: 448, Late: 0, Early: 0, Misses: 0
fc9-> Hits: 5843, Late: 17, Early: 0, Misses: 0
fca-> Hits: 102, Late: 0, Early: 0, Misses: 12
fcb-> Hits: 340, Late: 0, Early: 0, Misses: 0
fcc-> Hits: 0, Late: 56, Early: 0, Misses: 0
fcf-> Hits: 38, Late: 0, Early: 0, Misses: 0
fd0-> Hits: 11212, Late: 0, Early: 0, Misses: 0
fd1-> Hits: 394, Late: 1, Early: 0, Misses: 61
fd2-> Hits: 50, Late: 0, Early: 0, Misses: 0
fd3-> Hits: 492, Late: 0, Early: 0, Misses: 0
fd6-> Hits: 14, Late: 0, Early: 0, Misses: 0
fd7-> Hits: 11, Late: 0, Early: 0, Misses: 0
fd9-> Hits: 11659, Late: 1305, Early: 0, Misses: 0
fde-> Hits: 361, Late: 0, Early: 0, Misses: 0
fdf-> Hits: 222, Late: 0, Early: 0, Misses: 0
fe0-> Hits: 256, Late: 1, Early: 0, Misses: 15
fe1-> Hits: 300, Late: 0, Early: 0, Misses: 0
fe2-> Hits: 1, Late: 0, Early: 0, Misses: 0
fe3-> Hits: 15913, Late: 0, Early: 0, Misses: 0
fe4-> Hits: 116, Late: 0, Early: 0, Misses: 0
fe5-> Hits: 11166, Late: 58, Early: 0, Misses: 0
fe7-> Hits: 849, Late: 0, Early: 0, Misses: 0
fea-> Hits: 183, Late: 0, Early: 0, Misses: 0
feb-> Hits: 15707, Late: 221, Early: 0, Misses: 426
fed-> Hits: 115, Late: 123, Early: 0, Misses: 0
fef-> Hits: 627, Late: 2, Early: 0, Misses: 55
ff0-> Hits: 156, Late: 56, Early: 0, Misses: 0
ff2-> Hits: 149, Late: 0, Early: 0, Misses: 0
ff3-> Hits: 16601, Late: 3, Early: 0, Misses: 12
ff4-> Hits: 340, Late: 0, Early: 0, Misses: 56
ff6-> Hits: 394, Late: 0, Early: 0, Misses: 0
ff7-> Hits: 6, Late: 0, Early: 0, Misses: 0
ff8-> Hits: 187, Late: 399, Early: 0, Misses: 59
ff9-> Hits: 53, Late: 0, Early: 0, Misses: 0
ffa-> Hits: 188, Late: 21, Early: 0, Misses: 0
ffb-> Hits: 55, Late: 0, Early: 0, Misses: 0
fff-> Hits: 4766, Late: 4, Early: 0, Misses: 0
Total misses (from ip) 400176
Total accesses (misses) 16260659 400176
Pref: Addr 0 IP 0 Current 0
 All Calls: 1472001
 Critical Calls: 1472001
------------------
Depth Distribution
------------------
depth 0: 0
depth 1: 1297123
depth 2: 880752
depth 3: 724322
depth 4: 587775
depth 5: 468026
depth 6: 312463
depth 7: 136301
depth 8: 54835
depth 9: 14914
depth 10: 3600
depth 11: 657
depth 12: 59
depth 13: 0
depth 14: 0
depth 15: 0
depth 16: 0
depth 17: 0
depth 18: 0
depth 19: 0
depth 20: 0
depth 21: 0
depth 22: 0
depth 23: 0
depth 24: 0
depth 25: 0
depth 26: 0
depth 27: 0
depth 28: 0
depth 29: 0
Total: 4480827
-----------------------------
-----------------------------
	Captured at Filter
-----------------------------
depth 0: 0
depth 1: 126534
depth 2: 109808
depth 3: 99359
depth 4: 86673
depth 5: 71855
depth 6: 53817
depth 7: 32793
depth 8: 18766
depth 9: 8327
depth 10: 2128
depth 11: 366
depth 12: 23
depth 13: 0
depth 14: 0
depth 15: 0
depth 16: 0
depth 17: 0
depth 18: 0
depth 19: 0
depth 20: 0
depth 21: 0
depth 22: 0
depth 23: 0
depth 24: 0
depth 25: 0
depth 26: 0
depth 27: 0
depth 28: 0
depth 29: 0
-----------------------------
-----------------------------
		Lost at Page
-----------------------------
depth 0: 0
depth 1: 50308
depth 2: 34007
depth 3: 43392
depth 4: 48105
depth 5: 50610
depth 6: 42825
depth 7: 23399
depth 8: 11914
depth 9: 3940
depth 10: 1083
depth 11: 206
depth 12: 19
depth 13: 0
depth 14: 0
depth 15: 0
depth 16: 0
depth 17: 0
depth 18: 0
depth 19: 0
depth 20: 0
depth 21: 0
depth 22: 0
depth 23: 0
depth 24: 0
depth 25: 0
depth 26: 0
depth 27: 0
depth 28: 0
depth 29: 0
-----------------------------
-----------------------------
	Lost due to PQ Size
-----------------------------
133931
-----------------------------
ST read accesses: 606691
ST write accesses: 9534
PT read accesses: 15810107
PT write accesses: 890871
FILTER read accesses: 3271944
FILTER write accesses: 620554
GHR read accesses: 861749
GHR write accesses: 137136
GHR counter read accesses: 13308158
GHR counter write accesses: 896578
ST tag read accesses: 244117572
ST tag write accesses: 6853618

DRAM Statistics
 CHANNEL 0
 RQ ROW_BUFFER_HIT:      76232  ROW_BUFFER_MISS:     107739
 DBUS_CONGESTED:        854
 WQ ROW_BUFFER_HIT:      14731  ROW_BUFFER_MISS:      51022  FULL:          0

 AVG_CONGESTED_CYCLE: 5
 All warmup complete: 2
Channel 0 Bank busy for read cycles: 0
Channel 0 Bank busy for write cycles: 0
Channel 0
Rank 0
0banks busy for read cycles: 50543160
0banks busy for write cycles: 9203
1banks busy for read cycles: 4409087
1banks busy for write cycles: 1175751
2banks busy for read cycles: 2687998
2banks busy for write cycles: 549156
3banks busy for read cycles: 1188561
3banks busy for write cycles: 362671
4banks busy for read cycles: 613849
4banks busy for write cycles: 267941
5banks busy for read cycles: 308779
5banks busy for write cycles: 225310
6banks busy for read cycles: 179262
6banks busy for write cycles: 208169
7banks busy for read cycles: 103294
7banks busy for write cycles: 235217
8banks busy for read cycles: 111394
8banks busy for write cycles: 623768

CPU 0 Branch Prediction Accuracy: 97.2621% MPKI: 3.31844 Average ROB Occupancy at Mispredict: 28.6219
Branch types
NOT_BRANCH: 43939676 87.8793%
BRANCH_DIRECT_JUMP: 214980 0.42996%
BRANCH_INDIRECT: 2007 0.004014%
BRANCH_CONDITIONAL: 5640880 11.2818%
BRANCH_DIRECT_CALL: 101143 0.202286%
BRANCH_INDIRECT_CALL: 0 0%
BRANCH_RETURN: 101145 0.20229%
BRANCH_OTHER: 0 0%

DRAM PAGES: 1048576
Allocated PAGES: 5309
