Initialize SIGNATURE TABLE
ST_SET: 1
ST_WAY: 256
ST_TAG_BIT: 16
ST_TAG_MASK: ffff

Initialize PATTERN TABLE
PT_SET: 512
PT_WAY: 4
SIG_DELTA_BIT: 7
C_SIG_BIT: 4
C_DELTA_BIT: 4

Initialize PREFETCH FILTER
FILTER_SET: 1024

*** ChampSim Multicore Out-of-Order Simulator ***

Warmup Instructions: 50000000
Simulation Instructions: 50000000
Number of CPUs: 1
LLC sets: 2048
LLC ways: 16
Off-chip DRAM Size: 4096 MB Channels: 1 Width: 64-bit Data Rate: 6400 MT/s
CPU 0 runs ./tracer/traces/605.mcf_s-1554B.champsimtrace.xz
.xz
CPU 0 Bimodal branch predictor
BTB has LRU replacement policy
ITLB has LRU replacement policy
DTLB has LRU replacement policy
STLB has LRU replacement policy
L1I has LRU replacement policy
L1D has LRU replacement policy
ST_WAYS: 256
PT_SETS: 512
Initialize SRRIP state for L2C
Initialize SHIP state
Assign rand_sets[0]: 454  LLC: 2048
rand_sets[0]: 454
Assign rand_sets[1]: 1662  LLC: 2048
rand_sets[1]: 1662
Assign rand_sets[2]: 1921  LLC: 2048
rand_sets[2]: 1921
Assign rand_sets[3]: 1131  LLC: 2048
rand_sets[3]: 1131
Assign rand_sets[4]: 331  LLC: 2048
rand_sets[4]: 331
Assign rand_sets[5]: 1531  LLC: 2048
rand_sets[5]: 1531
Assign rand_sets[6]: 482  LLC: 2048
rand_sets[6]: 482
Assign rand_sets[7]: 1275  LLC: 2048
rand_sets[7]: 1275
Assign rand_sets[8]: 1876  LLC: 2048
rand_sets[8]: 1876
Assign rand_sets[9]: 2038  LLC: 2048
rand_sets[9]: 2038
Assign rand_sets[10]: 701  LLC: 2048
rand_sets[10]: 701
Assign rand_sets[11]: 479  LLC: 2048
rand_sets[11]: 479
Assign rand_sets[12]: 892  LLC: 2048
rand_sets[12]: 892
Assign rand_sets[13]: 1820  LLC: 2048
rand_sets[13]: 1820
Assign rand_sets[14]: 1505  LLC: 2048
rand_sets[14]: 1505
Assign rand_sets[15]: 1159  LLC: 2048
rand_sets[15]: 1159
Assign rand_sets[16]: 513  LLC: 2048
rand_sets[16]: 513
Assign rand_sets[17]: 703  LLC: 2048
rand_sets[17]: 703
Assign rand_sets[18]: 561  LLC: 2048
rand_sets[18]: 561
Assign rand_sets[19]: 990  LLC: 2048
rand_sets[19]: 990
Assign rand_sets[20]: 342  LLC: 2048
rand_sets[20]: 342
Assign rand_sets[21]: 882  LLC: 2048
rand_sets[21]: 882
Assign rand_sets[22]: 15  LLC: 2048
rand_sets[22]: 15
Assign rand_sets[23]: 71  LLC: 2048
rand_sets[23]: 71
Assign rand_sets[24]: 1127  LLC: 2048
rand_sets[24]: 1127
Assign rand_sets[25]: 1382  LLC: 2048
rand_sets[25]: 1382
Assign rand_sets[26]: 647  LLC: 2048
rand_sets[26]: 647
Assign rand_sets[27]: 857  LLC: 2048
rand_sets[27]: 857
Assign rand_sets[28]: 1450  LLC: 2048
rand_sets[28]: 1450
Assign rand_sets[29]: 1160  LLC: 2048
rand_sets[29]: 1160
Assign rand_sets[30]: 1852  LLC: 2048
rand_sets[30]: 1852
Assign rand_sets[31]: 1881  LLC: 2048
rand_sets[31]: 1881
Assign rand_sets[32]: 1770  LLC: 2048
rand_sets[32]: 1770
Assign rand_sets[33]: 1622  LLC: 2048
rand_sets[33]: 1622
Assign rand_sets[34]: 275  LLC: 2048
rand_sets[34]: 275
Assign rand_sets[35]: 635  LLC: 2048
rand_sets[35]: 635
Assign rand_sets[36]: 466  LLC: 2048
rand_sets[36]: 466
Assign rand_sets[37]: 1413  LLC: 2048
rand_sets[37]: 1413
Assign rand_sets[38]: 417  LLC: 2048
rand_sets[38]: 417
Assign rand_sets[39]: 472  LLC: 2048
rand_sets[39]: 472
Assign rand_sets[40]: 1340  LLC: 2048
rand_sets[40]: 1340
Assign rand_sets[41]: 852  LLC: 2048
rand_sets[41]: 852
Assign rand_sets[42]: 1365  LLC: 2048
rand_sets[42]: 1365
Assign rand_sets[43]: 47  LLC: 2048
rand_sets[43]: 47
Assign rand_sets[44]: 823  LLC: 2048
rand_sets[44]: 823
Assign rand_sets[45]: 686  LLC: 2048
rand_sets[45]: 686
Assign rand_sets[46]: 1637  LLC: 2048
rand_sets[46]: 1637
Assign rand_sets[47]: 1115  LLC: 2048
rand_sets[47]: 1115
Assign rand_sets[48]: 986  LLC: 2048
rand_sets[48]: 986
Assign rand_sets[49]: 258  LLC: 2048
rand_sets[49]: 258
Assign rand_sets[50]: 633  LLC: 2048
rand_sets[50]: 633
Assign rand_sets[51]: 920  LLC: 2048
rand_sets[51]: 920
Assign rand_sets[52]: 204  LLC: 2048
rand_sets[52]: 204
Assign rand_sets[53]: 227  LLC: 2048
rand_sets[53]: 227
Assign rand_sets[54]: 1818  LLC: 2048
rand_sets[54]: 1818
Assign rand_sets[55]: 886  LLC: 2048
rand_sets[55]: 886
Assign rand_sets[56]: 1422  LLC: 2048
rand_sets[56]: 1422
Assign rand_sets[57]: 607  LLC: 2048
rand_sets[57]: 607
Assign rand_sets[58]: 217  LLC: 2048
rand_sets[58]: 217
Assign rand_sets[59]: 1945  LLC: 2048
rand_sets[59]: 1945
Assign rand_sets[60]: 143  LLC: 2048
rand_sets[60]: 143
Assign rand_sets[61]: 1311  LLC: 2048
rand_sets[61]: 1311
Assign rand_sets[62]: 319  LLC: 2048
rand_sets[62]: 319
Assign rand_sets[63]: 1846  LLC: 2048
rand_sets[63]: 1846
Assign rand_sets[64]: 238  LLC: 2048
rand_sets[64]: 238
Assign rand_sets[65]: 67  LLC: 2048
rand_sets[65]: 67
Assign rand_sets[66]: 1912  LLC: 2048
rand_sets[66]: 1912
Assign rand_sets[67]: 1613  LLC: 2048
rand_sets[67]: 1613
Assign rand_sets[68]: 1293  LLC: 2048
rand_sets[68]: 1293
Assign rand_sets[69]: 1018  LLC: 2048
rand_sets[69]: 1018
Assign rand_sets[70]: 1982  LLC: 2048
rand_sets[70]: 1982
Assign rand_sets[71]: 1702  LLC: 2048
rand_sets[71]: 1702
Assign rand_sets[72]: 1498  LLC: 2048
rand_sets[72]: 1498
Assign rand_sets[73]: 228  LLC: 2048
rand_sets[73]: 228
Assign rand_sets[74]: 1414  LLC: 2048
rand_sets[74]: 1414
Assign rand_sets[75]: 1166  LLC: 2048
rand_sets[75]: 1166
Assign rand_sets[76]: 732  LLC: 2048
rand_sets[76]: 732
Assign rand_sets[77]: 297  LLC: 2048
rand_sets[77]: 297
Assign rand_sets[78]: 1133  LLC: 2048
rand_sets[78]: 1133
Assign rand_sets[79]: 846  LLC: 2048
rand_sets[79]: 846
Assign rand_sets[80]: 767  LLC: 2048
rand_sets[80]: 767
Assign rand_sets[81]: 1878  LLC: 2048
rand_sets[81]: 1878
Assign rand_sets[82]: 993  LLC: 2048
rand_sets[82]: 993
Assign rand_sets[83]: 1392  LLC: 2048
rand_sets[83]: 1392
Assign rand_sets[84]: 1568  LLC: 2048
rand_sets[84]: 1568
Assign rand_sets[85]: 1787  LLC: 2048
rand_sets[85]: 1787
Assign rand_sets[86]: 399  LLC: 2048
rand_sets[86]: 399
Assign rand_sets[87]: 1201  LLC: 2048
rand_sets[87]: 1201
Assign rand_sets[88]: 856  LLC: 2048
rand_sets[88]: 856
Assign rand_sets[89]: 773  LLC: 2048
rand_sets[89]: 773
Assign rand_sets[90]: 1680  LLC: 2048
rand_sets[90]: 1680
Assign rand_sets[91]: 1477  LLC: 2048
rand_sets[91]: 1477
Assign rand_sets[92]: 9  LLC: 2048
rand_sets[92]: 9
Assign rand_sets[93]: 1500  LLC: 2048
rand_sets[93]: 1500
Assign rand_sets[94]: 851  LLC: 2048
rand_sets[94]: 851
Assign rand_sets[95]: 973  LLC: 2048
rand_sets[95]: 973
Assign rand_sets[96]: 938  LLC: 2048
rand_sets[96]: 938
Assign rand_sets[97]: 1851  LLC: 2048
rand_sets[97]: 1851
Assign rand_sets[98]: 1608  LLC: 2048
rand_sets[98]: 1608
Assign rand_sets[99]: 1945  LLC: 2048
Assign rand_sets[99]: 1106  LLC: 2048
rand_sets[99]: 1106
Assign rand_sets[100]: 979  LLC: 2048
rand_sets[100]: 979
Assign rand_sets[101]: 338  LLC: 2048
rand_sets[101]: 338
Assign rand_sets[102]: 1693  LLC: 2048
rand_sets[102]: 1693
Assign rand_sets[103]: 6  LLC: 2048
rand_sets[103]: 6
Assign rand_sets[104]: 671  LLC: 2048
rand_sets[104]: 671
Assign rand_sets[105]: 490  LLC: 2048
rand_sets[105]: 490
Assign rand_sets[106]: 1461  LLC: 2048
rand_sets[106]: 1461
Assign rand_sets[107]: 1730  LLC: 2048
rand_sets[107]: 1730
Assign rand_sets[108]: 1030  LLC: 2048
rand_sets[108]: 1030
Assign rand_sets[109]: 19  LLC: 2048
rand_sets[109]: 19
Assign rand_sets[110]: 920  LLC: 2048
Assign rand_sets[110]: 329  LLC: 2048
rand_sets[110]: 329
Assign rand_sets[111]: 1714  LLC: 2048
rand_sets[111]: 1714
Assign rand_sets[112]: 1  LLC: 2048
rand_sets[112]: 1
Assign rand_sets[113]: 1822  LLC: 2048
rand_sets[113]: 1822
Assign rand_sets[114]: 172  LLC: 2048
rand_sets[114]: 172
Assign rand_sets[115]: 1586  LLC: 2048
rand_sets[115]: 1586
Assign rand_sets[116]: 648  LLC: 2048
rand_sets[116]: 648
Assign rand_sets[117]: 1329  LLC: 2048
rand_sets[117]: 1329
Assign rand_sets[118]: 668  LLC: 2048
rand_sets[118]: 668
Assign rand_sets[119]: 1874  LLC: 2048
rand_sets[119]: 1874
Assign rand_sets[120]: 70  LLC: 2048
rand_sets[120]: 70
Assign rand_sets[121]: 661  LLC: 2048
rand_sets[121]: 661
Assign rand_sets[122]: 1649  LLC: 2048
rand_sets[122]: 1649
Assign rand_sets[123]: 1590  LLC: 2048
rand_sets[123]: 1590
Assign rand_sets[124]: 911  LLC: 2048
rand_sets[124]: 911
Assign rand_sets[125]: 1367  LLC: 2048
rand_sets[125]: 1367
Assign rand_sets[126]: 1782  LLC: 2048
rand_sets[126]: 1782
Assign rand_sets[127]: 569  LLC: 2048
rand_sets[127]: 569
Assign rand_sets[128]: 1309  LLC: 2048
rand_sets[128]: 1309
Assign rand_sets[129]: 534  LLC: 2048
rand_sets[129]: 534
Assign rand_sets[130]: 1274  LLC: 2048
rand_sets[130]: 1274
Assign rand_sets[131]: 904  LLC: 2048
rand_sets[131]: 904
Assign rand_sets[132]: 1908  LLC: 2048
rand_sets[132]: 1908
Assign rand_sets[133]: 245  LLC: 2048
rand_sets[133]: 245
Assign rand_sets[134]: 1688  LLC: 2048
rand_sets[134]: 1688
Assign rand_sets[135]: 1660  LLC: 2048
rand_sets[135]: 1660
Assign rand_sets[136]: 1303  LLC: 2048
rand_sets[136]: 1303
Assign rand_sets[137]: 1628  LLC: 2048
rand_sets[137]: 1628
Assign rand_sets[138]: 1857  LLC: 2048
rand_sets[138]: 1857
Assign rand_sets[139]: 187  LLC: 2048
rand_sets[139]: 187
Assign rand_sets[140]: 1389  LLC: 2048
rand_sets[140]: 1389
Assign rand_sets[141]: 881  LLC: 2048
rand_sets[141]: 881
Assign rand_sets[142]: 1166  LLC: 2048
Assign rand_sets[142]: 1039  LLC: 2048
rand_sets[142]: 1039
Assign rand_sets[143]: 1136  LLC: 2048
rand_sets[143]: 1136
Assign rand_sets[144]: 601  LLC: 2048
rand_sets[144]: 601
Assign rand_sets[145]: 967  LLC: 2048
rand_sets[145]: 967
Assign rand_sets[146]: 769  LLC: 2048
rand_sets[146]: 769
Assign rand_sets[147]: 283  LLC: 2048
rand_sets[147]: 283
Assign rand_sets[148]: 559  LLC: 2048
rand_sets[148]: 559
Assign rand_sets[149]: 1075  LLC: 2048
rand_sets[149]: 1075
Assign rand_sets[150]: 829  LLC: 2048
rand_sets[150]: 829
Assign rand_sets[151]: 1681  LLC: 2048
rand_sets[151]: 1681
Assign rand_sets[152]: 1728  LLC: 2048
rand_sets[152]: 1728
Assign rand_sets[153]: 541  LLC: 2048
rand_sets[153]: 541
Assign rand_sets[154]: 421  LLC: 2048
rand_sets[154]: 421
Assign rand_sets[155]: 1037  LLC: 2048
rand_sets[155]: 1037
Assign rand_sets[156]: 13  LLC: 2048
rand_sets[156]: 13
Assign rand_sets[157]: 1707  LLC: 2048
rand_sets[157]: 1707
Assign rand_sets[158]: 1075  LLC: 2048
Assign rand_sets[158]: 1933  LLC: 2048
rand_sets[158]: 1933
Assign rand_sets[159]: 1406  LLC: 2048
rand_sets[159]: 1406
Assign rand_sets[160]: 94  LLC: 2048
rand_sets[160]: 94
Assign rand_sets[161]: 1423  LLC: 2048
rand_sets[161]: 1423
Assign rand_sets[162]: 1854  LLC: 2048
rand_sets[162]: 1854
Assign rand_sets[163]: 230  LLC: 2048
rand_sets[163]: 230
Assign rand_sets[164]: 104  LLC: 2048
rand_sets[164]: 104
Assign rand_sets[165]: 1652  LLC: 2048
rand_sets[165]: 1652
Assign rand_sets[166]: 1446  LLC: 2048
rand_sets[166]: 1446
Assign rand_sets[167]: 1338  LLC: 2048
rand_sets[167]: 1338
Assign rand_sets[168]: 177  LLC: 2048
rand_sets[168]: 177
Assign rand_sets[169]: 195  LLC: 2048
rand_sets[169]: 195
Assign rand_sets[170]: 1171  LLC: 2048
rand_sets[170]: 1171
Assign rand_sets[171]: 1297  LLC: 2048
rand_sets[171]: 1297
Assign rand_sets[172]: 1704  LLC: 2048
rand_sets[172]: 1704
Assign rand_sets[173]: 100  LLC: 2048
rand_sets[173]: 100
Assign rand_sets[174]: 711  LLC: 2048
rand_sets[174]: 711
Assign rand_sets[175]: 1243  LLC: 2048
rand_sets[175]: 1243
Assign rand_sets[176]: 1738  LLC: 2048
rand_sets[176]: 1738
Assign rand_sets[177]: 1504  LLC: 2048
rand_sets[177]: 1504
Assign rand_sets[178]: 96  LLC: 2048
rand_sets[178]: 96
Assign rand_sets[179]: 1249  LLC: 2048
rand_sets[179]: 1249
Assign rand_sets[180]: 1267  LLC: 2048
rand_sets[180]: 1267
Assign rand_sets[181]: 1727  LLC: 2048
rand_sets[181]: 1727
Assign rand_sets[182]: 1545  LLC: 2048
rand_sets[182]: 1545
Assign rand_sets[183]: 1792  LLC: 2048
rand_sets[183]: 1792
Assign rand_sets[184]: 1383  LLC: 2048
rand_sets[184]: 1383
Assign rand_sets[185]: 1954  LLC: 2048
rand_sets[185]: 1954
Assign rand_sets[186]: 739  LLC: 2048
rand_sets[186]: 739
Assign rand_sets[187]: 1061  LLC: 2048
rand_sets[187]: 1061
Assign rand_sets[188]: 672  LLC: 2048
rand_sets[188]: 672
Assign rand_sets[189]: 1057  LLC: 2048
rand_sets[189]: 1057
Assign rand_sets[190]: 1329  LLC: 2048
Assign rand_sets[190]: 1415  LLC: 2048
rand_sets[190]: 1415
Assign rand_sets[191]: 981  LLC: 2048
rand_sets[191]: 981
Assign rand_sets[192]: 98  LLC: 2048
rand_sets[192]: 98
Assign rand_sets[193]: 453  LLC: 2048
rand_sets[193]: 453
Assign rand_sets[194]: 1448  LLC: 2048
rand_sets[194]: 1448
Assign rand_sets[195]: 79  LLC: 2048
rand_sets[195]: 79
Assign rand_sets[196]: 126  LLC: 2048
rand_sets[196]: 126
Assign rand_sets[197]: 1582  LLC: 2048
rand_sets[197]: 1582
Assign rand_sets[198]: 1289  LLC: 2048
rand_sets[198]: 1289
Assign rand_sets[199]: 875  LLC: 2048
rand_sets[199]: 875
Assign rand_sets[200]: 404  LLC: 2048
rand_sets[200]: 404
Assign rand_sets[201]: 415  LLC: 2048
rand_sets[201]: 415
Assign rand_sets[202]: 1712  LLC: 2048
rand_sets[202]: 1712
Assign rand_sets[203]: 1389  LLC: 2048
Assign rand_sets[203]: 169  LLC: 2048
rand_sets[203]: 169
Assign rand_sets[204]: 158  LLC: 2048
rand_sets[204]: 158
Assign rand_sets[205]: 90  LLC: 2048
rand_sets[205]: 90
Assign rand_sets[206]: 1291  LLC: 2048
rand_sets[206]: 1291
Assign rand_sets[207]: 838  LLC: 2048
rand_sets[207]: 838
Assign rand_sets[208]: 1904  LLC: 2048
rand_sets[208]: 1904
Assign rand_sets[209]: 640  LLC: 2048
rand_sets[209]: 640
Assign rand_sets[210]: 1462  LLC: 2048
rand_sets[210]: 1462
Assign rand_sets[211]: 1487  LLC: 2048
rand_sets[211]: 1487
Assign rand_sets[212]: 1863  LLC: 2048
rand_sets[212]: 1863
Assign rand_sets[213]: 1036  LLC: 2048
rand_sets[213]: 1036
Assign rand_sets[214]: 1702  LLC: 2048
Assign rand_sets[214]: 933  LLC: 2048
rand_sets[214]: 933
Assign rand_sets[215]: 554  LLC: 2048
rand_sets[215]: 554
Assign rand_sets[216]: 1496  LLC: 2048
rand_sets[216]: 1496
Assign rand_sets[217]: 1708  LLC: 2048
rand_sets[217]: 1708
Assign rand_sets[218]: 1275  LLC: 2048
Assign rand_sets[218]: 416  LLC: 2048
rand_sets[218]: 416
Assign rand_sets[219]: 491  LLC: 2048
rand_sets[219]: 491
Assign rand_sets[220]: 183  LLC: 2048
rand_sets[220]: 183
Assign rand_sets[221]: 1657  LLC: 2048
rand_sets[221]: 1657
Assign rand_sets[222]: 1060  LLC: 2048
rand_sets[222]: 1060
Assign rand_sets[223]: 626  LLC: 2048
rand_sets[223]: 626
Assign rand_sets[224]: 1315  LLC: 2048
rand_sets[224]: 1315
Assign rand_sets[225]: 1682  LLC: 2048
rand_sets[225]: 1682
Assign rand_sets[226]: 1352  LLC: 2048
rand_sets[226]: 1352
Assign rand_sets[227]: 1152  LLC: 2048
rand_sets[227]: 1152
Assign rand_sets[228]: 965  LLC: 2048
rand_sets[228]: 965
Assign rand_sets[229]: 1190  LLC: 2048
rand_sets[229]: 1190
Assign rand_sets[230]: 1191  LLC: 2048
rand_sets[230]: 1191
Assign rand_sets[231]: 645  LLC: 2048
rand_sets[231]: 645
Assign rand_sets[232]: 695  LLC: 2048
rand_sets[232]: 695
Assign rand_sets[233]: 1495  LLC: 2048
rand_sets[233]: 1495
Assign rand_sets[234]: 1932  LLC: 2048
rand_sets[234]: 1932
Assign rand_sets[235]: 656  LLC: 2048
rand_sets[235]: 656
Assign rand_sets[236]: 1508  LLC: 2048
rand_sets[236]: 1508
Assign rand_sets[237]: 939  LLC: 2048
rand_sets[237]: 939
Assign rand_sets[238]: 355  LLC: 2048
rand_sets[238]: 355
Assign rand_sets[239]: 1092  LLC: 2048
rand_sets[239]: 1092
Assign rand_sets[240]: 850  LLC: 2048
rand_sets[240]: 850
Assign rand_sets[241]: 102  LLC: 2048
rand_sets[241]: 102
Assign rand_sets[242]: 1763  LLC: 2048
rand_sets[242]: 1763
Assign rand_sets[243]: 668  LLC: 2048
Assign rand_sets[243]: 51  LLC: 2048
rand_sets[243]: 51
Assign rand_sets[244]: 1317  LLC: 2048
rand_sets[244]: 1317
Assign rand_sets[245]: 2041  LLC: 2048
rand_sets[245]: 2041
Assign rand_sets[246]: 1374  LLC: 2048
rand_sets[246]: 1374
Assign rand_sets[247]: 682  LLC: 2048
rand_sets[247]: 682
Assign rand_sets[248]: 1466  LLC: 2048
rand_sets[248]: 1466
Assign rand_sets[249]: 1139  LLC: 2048
rand_sets[249]: 1139
Assign rand_sets[250]: 1632  LLC: 2048
rand_sets[250]: 1632
Assign rand_sets[251]: 1117  LLC: 2048
rand_sets[251]: 1117
Assign rand_sets[252]: 1611  LLC: 2048
rand_sets[252]: 1611
Assign rand_sets[253]: 1905  LLC: 2048
rand_sets[253]: 1905
Assign rand_sets[254]: 1662  LLC: 2048
Assign rand_sets[254]: 446  LLC: 2048
rand_sets[254]: 446
Assign rand_sets[255]: 1705  LLC: 2048
rand_sets[255]: 1705
Heartbeat CPU 0 instructions: 10000001 cycles: 3544159 heartbeat IPC: 2.82154 cumulative IPC: 2.82154 (Simulation time: 0 hr 1 min 8 sec) 
Heartbeat CPU 0 instructions: 20000000 cycles: 7109818 heartbeat IPC: 2.80453 cumulative IPC: 2.81301 (Simulation time: 0 hr 2 min 7 sec) 
Heartbeat CPU 0 instructions: 30000003 cycles: 10690352 heartbeat IPC: 2.79288 cumulative IPC: 2.80627 (Simulation time: 0 hr 3 min 14 sec) 
Heartbeat CPU 0 instructions: 40000000 cycles: 14254986 heartbeat IPC: 2.80534 cumulative IPC: 2.80604 (Simulation time: 0 hr 4 min 24 sec) 
Heartbeat CPU 0 instructions: 50000001 cycles: 17822973 heartbeat IPC: 2.8027 cumulative IPC: 2.80537 (Simulation time: 0 hr 5 min 32 sec) 

Warmup complete CPU 0 instructions: 50000001 cycles: 17822973 (Simulation time: 0 hr 5 min 32 sec) 

Heartbeat CPU 0 instructions: 60000002 cycles: 43482947 heartbeat IPC: 0.389712 cumulative IPC: 0.389712 (Simulation time: 0 hr 7 min 31 sec) 
Heartbeat CPU 0 instructions: 70000000 cycles: 69685143 heartbeat IPC: 0.381647 cumulative IPC: 0.385638 (Simulation time: 0 hr 10 min 6 sec) 
Heartbeat CPU 0 instructions: 80000003 cycles: 96151516 heartbeat IPC: 0.377838 cumulative IPC: 0.383002 (Simulation time: 0 hr 12 min 9 sec) 
Heartbeat CPU 0 instructions: 90000001 cycles: 122081907 heartbeat IPC: 0.385648 cumulative IPC: 0.38366 (Simulation time: 0 hr 13 min 58 sec) 
Heartbeat CPU 0 instructions: 100000000 cycles: 147749024 heartbeat IPC: 0.389604 cumulative IPC: 0.384834 (Simulation time: 0 hr 15 min 28 sec) 
Finished CPU 0 instructions: 50000003 cycles: 129926052 cumulative IPC: 0.384834 (Simulation time: 0 hr 15 min 28 sec) 

ChampSim completed all CPUs

Region of Interest Statistics

CPU 0 cumulative IPC: 0.384834 instructions: 50000003 cycles: 129926052
ITLB TOTAL     ACCESS:   10026406  HIT:   10026406  MISS:          0  HIT %:        100  MISS %:          0   MPKI: 0
ITLB LOAD TRANSLATION ACCESS:   10026406  HIT:   10026406  MISS:          0  HIT %:        100  MISS %:          0   MPKI: 0
ITLB PREFETCH  REQUESTED:          0  ISSUED:          0  USEFUL:          0  USELESS:          0
ITLB USEFUL LOAD PREFETCHES:          0 PREFETCH ISSUED TO LOWER LEVEL:          0  ACCURACY: -nan
ITLB TIMELY PREFETCHES:          0 LATE PREFETCHES: 0 DROPPED PREFETCHES: 0
ITLB PREFETCHES SAME FILL-ORIGIN LEVEL: 0 DIFFERENT FILL-ORIGIN LEVEL: 0
ITLB AVERAGE MISS LATENCY: -nan cycles
ITLB RQ	ACCESS:   12272636	FORWARD:          0	MERGED:    2246230	TO_CACHE:   10026406

DTLB TOTAL     ACCESS:   15757740  HIT:   15562272  MISS:     195468  HIT %:    98.7595  MISS %:    1.24046   MPKI: 3.90936
DTLB LOAD TRANSLATION ACCESS:   15757740  HIT:   15562272  MISS:     195468  HIT %:    98.7595  MISS %:    1.24046   MPKI: 3.90936
DTLB PREFETCH  REQUESTED:          0  ISSUED:          0  USEFUL:          0  USELESS:          0
DTLB USEFUL LOAD PREFETCHES:          0 PREFETCH ISSUED TO LOWER LEVEL:          0  ACCURACY: -nan
DTLB TIMELY PREFETCHES:          0 LATE PREFETCHES: 0 DROPPED PREFETCHES: 0
DTLB PREFETCHES SAME FILL-ORIGIN LEVEL: 0 DIFFERENT FILL-ORIGIN LEVEL: 0
DTLB AVERAGE MISS LATENCY: 13.2002 cycles
DTLB RQ	ACCESS:   19483111	FORWARD:          0	MERGED:    3720502	TO_CACHE:   15762609

STLB TOTAL     ACCESS:    4965810  HIT:    4961321  MISS:       4489  HIT %:    99.9096  MISS %:  0.0903981   MPKI: 0.08978
STLB LOAD TRANSLATION ACCESS:     195468  HIT:     190982  MISS:       4486  HIT %:     97.705  MISS %:      2.295   MPKI: 0.08972
STLB TRANSLATION FROM L1D PREFETCHER ACCESS:    4770342  HIT:    4770339  MISS:          3  HIT %:    99.9999  MISS %: 6.28886e-05   MPKI: 6e-05
STLB PREFETCH  REQUESTED:          0  ISSUED:          0  USEFUL:          2  USELESS:          1
STLB USEFUL LOAD PREFETCHES:          2 PREFETCH ISSUED TO LOWER LEVEL:          0  ACCURACY: inf
STLB TIMELY PREFETCHES:          2 LATE PREFETCHES: 0 DROPPED PREFETCHES: 0
STLB PREFETCHES SAME FILL-ORIGIN LEVEL: 0 DIFFERENT FILL-ORIGIN LEVEL: 0
STLB AVERAGE MISS LATENCY: 182.523 cycles
STLB RQ	ACCESS:   11833425	FORWARD:          0	MERGED:    6867616	TO_CACHE:    4965809

STLB Hit, L1D data hit: 0
STLB Hit, L2C data hit: 0
STLB Hit, LLC data hit: 0
STLB Hit, LLC data miss: 0
STLB STLB hints to L2: 0
L1D TOTAL     ACCESS:   25187577  HIT:   16007924  MISS:    9179653  HIT %:    63.5548  MISS %:    36.4452   MPKI: 183.593
L1D LOAD      ACCESS:   16101249  HIT:   13485261  MISS:    2615988  HIT %:    83.7529  MISS %:    16.2471   MPKI: 52.3198
L1D RFO       ACCESS:    2673120  HIT:    2519219  MISS:     153901  HIT %:    94.2426  MISS %:    5.75735   MPKI: 3.07802
L1D PREFETCH  ACCESS:    6413208  HIT:       3444  MISS:    6409764  HIT %:  0.0537017  MISS %:    99.9463   MPKI: 128.195
AGUS PREFETCH L1 MISS: 0
L1D PREFETCH  REQUESTED:   23364583  ISSUED:   23364583  USEFUL:    4860635  USELESS:    1549129
L1D USEFUL LOAD PREFETCHES:    4860635 PREFETCH ISSUED TO LOWER LEVEL:   11529352  ACCURACY: 42.1588
L1D TIMELY PREFETCHES:    4860635 LATE PREFETCHES: 675580 DROPPED PREFETCHES: 0
L1D PREFETCHES SAME FILL-ORIGIN LEVEL: 7085891 DIFFERENT FILL-ORIGIN LEVEL: 4443461
L1D AVERAGE MISS LATENCY: 6.08491e+06 cycles
L1D RQ	ACCESS:   20563906	FORWARD:          0	MERGED:    4196277	TO_CACHE:   16337557
L1D WQ	ACCESS:    3711168	FORWARD:      30072	MERGED:     565614	TO_CACHE:    3145554
L1D PQ	ACCESS:   11726626	FORWARD:          0	MERGED:      88669	TO_CACHE:   11637957

L1D UNIQUE REGIONS ACCESSED: 0
L1D REGIONS CONFLICTS: 0
L1D Cross Page Prefetch Requests: 0
L1D Same Page Prefetch Requests: 22692827
L1D ROI Sum of L1D PQ occupancy: 154190799
L1D PREFETCHES PUSHED FROM L2C: 0
L1I TOTAL     ACCESS:   12272633  HIT:   12272633  MISS:          0  HIT %:        100  MISS %:          0   MPKI: 0
L1I LOAD      ACCESS:   12272633  HIT:   12272633  MISS:          0  HIT %:        100  MISS %:          0   MPKI: 0
L1I PREFETCH  REQUESTED:          0  ISSUED:          0  USEFUL:          0  USELESS:          0
L1I USEFUL LOAD PREFETCHES:          0 PREFETCH ISSUED TO LOWER LEVEL:          0  ACCURACY: -nan
L1I TIMELY PREFETCHES:          0 LATE PREFETCHES: 0 DROPPED PREFETCHES: 0
L1I PREFETCHES SAME FILL-ORIGIN LEVEL: 0 DIFFERENT FILL-ORIGIN LEVEL: 0
L1I AVERAGE MISS LATENCY: -nan cycles
L1I RQ	ACCESS:   16639365	FORWARD:          0	MERGED:    4366729	TO_CACHE:   12272636

BTB TOTAL     ACCESS:    8795729  HIT:    8795697  MISS:         32  HIT %:    99.9996  MISS %: 0.000363813   MPKI: 0.00064
BTB BRANCH_DIRECT_JUMP	ACCESS:    2039126  HIT:    2039120  MISS:          6
BTB BRANCH_INDIRECT	ACCESS:          0  HIT:          0  MISS:          0
BTB BRANCH_CONDITIONAL	ACCESS:    6755819  HIT:    6755797  MISS:         22
BTB BRANCH_DIRECT_CALL	ACCESS:        392  HIT:        390  MISS:          2
BTB BRANCH_INDIRECT_CALL	ACCESS:          0  HIT:          0  MISS:          0
BTB BRANCH_RETURN	ACCESS:        392  HIT:        390  MISS:          2
BTB BRANCH_OTHER ACCESS:           0  HIT:          0  MISS:          0

L2C TOTAL     ACCESS:   14533595  HIT:    4900181  MISS:    9633414  HIT %:    33.7162  MISS %:    66.2838   MPKI: 192.668
L2C LOAD      ACCESS:    1940408  HIT:     246247  MISS:    1694161  HIT %:    12.6905  MISS %:    87.3095   MPKI: 33.8832
L2C DATA LOAD MPKI: 33.8832
L2C INSTRUCTION LOAD MPKI: 0
L2C RFO       ACCESS:     153662  HIT:        325  MISS:     153337  HIT %:   0.211503  MISS %:    99.7885   MPKI: 3.06674
L2C PREFETCH  ACCESS:   12242914  HIT:    4459546  MISS:    7783368  HIT %:    36.4255  MISS %:    63.5745   MPKI: 155.667
AGUS PREFETCH L1 MISS: 0
L2C DATA PREFETCH MPKI: 155.667
L2C INSTRUCTION PREFETCH MPKI: 0
L2C WRITEBACK ACCESS:     192116  HIT:     190717  MISS:       1399  HIT %:    99.2718  MISS %:   0.728206   MPKI: 0.02798
L2C LOAD TRANSLATION ACCESS:       4490  HIT:       3346  MISS:       1144  HIT %:    74.5212  MISS %:    25.4788   MPKI: 0.02288
L2C TRANSLATION FROM L1D PREFETCHER ACCESS:          5  HIT:          0  MISS:          5  HIT %:          0  MISS %:        100   MPKI: 0.0001
L2C PREFETCH  REQUESTED:    8636864  ISSUED:    8636312  USEFUL:     245492  USELESS:    7537313
L2C USEFUL LOAD PREFETCHES:     245492 PREFETCH ISSUED TO LOWER LEVEL:   10635119  ACCURACY: 2.30831
L2C TIMELY PREFETCHES:     245492 LATE PREFETCHES: 48237 DROPPED PREFETCHES: 0
L2C PREFETCHES SAME FILL-ORIGIN LEVEL: 4454541 DIFFERENT FILL-ORIGIN LEVEL: 2803512
L2C AVERAGE MISS LATENCY: 86.6786 cycles
L2C RQ	ACCESS:    2098567	FORWARD:          0	MERGED:          0	TO_CACHE:    2098566
L2C WQ	ACCESS:     192116	FORWARD:          1	MERGED:          0	TO_CACHE:     192116
L2C PQ	ACCESS:   20165018	FORWARD:          0	MERGED:    4009573	TO_CACHE:   16155445

L2C Instructions Evicting Data 0
L2C Translations Evicting Data 1149
L2C Data Evicting Data 9629712
L2C Instructions Evicting Instructions 0
L2C Translations Evicting Instructions 0
L2C Data Evicting Instructions 0
L2C Instructions Evicting Translations 0
L2C Translations Evicting Translations 0
L2C Data Evicting Translations 1154
L2C Dense regions hint from L2: 0
PSCL5 TOTAL     ACCESS:       4489  HIT:       4489  MISS:          0  HIT %:        100  MISS %:          0   MPKI: 0
PSCL5 LOAD TRANSLATION ACCESS:       4486  HIT:       4486  MISS:          0  HIT %:        100  MISS %:          0   MPKI: 0
PSCL5 TRANSLATION FROM L1D PREFETCHER ACCESS:          3  HIT:          3  MISS:          0  HIT %:        100  MISS %:          0   MPKI: 0
PSCL5 PREFETCH  REQUESTED:          0  ISSUED:          0  USEFUL:          0  USELESS:          0
PSCL5 USEFUL LOAD PREFETCHES:          0 PREFETCH ISSUED TO LOWER LEVEL:          0  ACCURACY: -nan
PSCL5 TIMELY PREFETCHES:          0 LATE PREFETCHES: 0 DROPPED PREFETCHES: 0
PSCL5 PREFETCHES SAME FILL-ORIGIN LEVEL: 0 DIFFERENT FILL-ORIGIN LEVEL: 0

PSCL4 TOTAL     ACCESS:       4489  HIT:       4489  MISS:          0  HIT %:        100  MISS %:          0   MPKI: 0
PSCL4 LOAD TRANSLATION ACCESS:       4486  HIT:       4486  MISS:          0  HIT %:        100  MISS %:          0   MPKI: 0
PSCL4 TRANSLATION FROM L1D PREFETCHER ACCESS:          3  HIT:          3  MISS:          0  HIT %:        100  MISS %:          0   MPKI: 0
PSCL4 PREFETCH  REQUESTED:          0  ISSUED:          0  USEFUL:          0  USELESS:          0
PSCL4 USEFUL LOAD PREFETCHES:          0 PREFETCH ISSUED TO LOWER LEVEL:          0  ACCURACY: -nan
PSCL4 TIMELY PREFETCHES:          0 LATE PREFETCHES: 0 DROPPED PREFETCHES: 0
PSCL4 PREFETCHES SAME FILL-ORIGIN LEVEL: 0 DIFFERENT FILL-ORIGIN LEVEL: 0

PSCL3 TOTAL     ACCESS:       4489  HIT:       4489  MISS:          0  HIT %:        100  MISS %:          0   MPKI: 0
PSCL3 LOAD TRANSLATION ACCESS:       4486  HIT:       4486  MISS:          0  HIT %:        100  MISS %:          0   MPKI: 0
PSCL3 TRANSLATION FROM L1D PREFETCHER ACCESS:          3  HIT:          3  MISS:          0  HIT %:        100  MISS %:          0   MPKI: 0
PSCL3 PREFETCH  REQUESTED:          0  ISSUED:          0  USEFUL:          0  USELESS:          0
PSCL3 USEFUL LOAD PREFETCHES:          0 PREFETCH ISSUED TO LOWER LEVEL:          0  ACCURACY: -nan
PSCL3 TIMELY PREFETCHES:          0 LATE PREFETCHES: 0 DROPPED PREFETCHES: 0
PSCL3 PREFETCHES SAME FILL-ORIGIN LEVEL: 0 DIFFERENT FILL-ORIGIN LEVEL: 0

PSCL2 TOTAL     ACCESS:       4489  HIT:       4474  MISS:         15  HIT %:    99.6658  MISS %:    0.33415   MPKI: 0.0003
PSCL2 LOAD TRANSLATION ACCESS:       4488  HIT:       4473  MISS:         15  HIT %:    99.6658  MISS %:   0.334225   MPKI: 0.0003
PSCL2 TRANSLATION FROM L1D PREFETCHER ACCESS:          1  HIT:          1  MISS:          0  HIT %:        100  MISS %:          0   MPKI: 0
PSCL2 PREFETCH  REQUESTED:          0  ISSUED:          0  USEFUL:          0  USELESS:          0
PSCL2 USEFUL LOAD PREFETCHES:          0 PREFETCH ISSUED TO LOWER LEVEL:          0  ACCURACY: -nan
PSCL2 TIMELY PREFETCHES:          0 LATE PREFETCHES: 0 DROPPED PREFETCHES: 0
PSCL2 PREFETCHES SAME FILL-ORIGIN LEVEL: 0 DIFFERENT FILL-ORIGIN LEVEL: 0

LLC TOTAL     ACCESS:   12165669  HIT:    7099786  MISS:    5065883  HIT %:    58.3592  MISS %:    41.6408   MPKI: 101.318
LLC LOAD      ACCESS:    1645924  HIT:    1134841  MISS:     511083  HIT %:    68.9486  MISS %:    31.0514   MPKI: 10.2217
LLC RFO       ACCESS:     153337  HIT:       4205  MISS:     149132  HIT %:    2.74233  MISS %:    97.2577   MPKI: 2.98264
LLC PREFETCH  ACCESS:   10172564  HIT:    5924913  MISS:    4247651  HIT %:     58.244  MISS %:     41.756   MPKI: 84.953
AGUS PREFETCH L1 MISS: 0
LLC WRITEBACK ACCESS:     192695  HIT:      35751  MISS:     156944  HIT %:    18.5532  MISS %:    81.4468   MPKI: 3.13888
LLC LOAD TRANSLATION ACCESS:       1144  HIT:         76  MISS:       1068  HIT %:    6.64336  MISS %:    93.3566   MPKI: 0.02136
LLC TRANSLATION FROM L1D PREFETCHER ACCESS:          5  HIT:          0  MISS:          5  HIT %:          0  MISS %:        100   MPKI: 0.0001
LLC PREFETCH  REQUESTED:          0  ISSUED:          0  USEFUL:     160609  USELESS:    4084505
LLC USEFUL LOAD PREFETCHES:     160609 PREFETCH ISSUED TO LOWER LEVEL:    4299468  ACCURACY: 3.73556
LLC TIMELY PREFETCHES:     160609 LATE PREFETCHES: 51816 DROPPED PREFETCHES: 0
LLC PREFETCHES SAME FILL-ORIGIN LEVEL: 1165403 DIFFERENT FILL-ORIGIN LEVEL: 0
LLC AVERAGE MISS LATENCY: 134.563 cycles
LLC RQ	ACCESS:    1800410	FORWARD:          0	MERGED:          0	TO_CACHE:    1800410
LLC WQ	ACCESS:     192695	FORWARD:          0	MERGED:          0	TO_CACHE:     192695
LLC PQ	ACCESS:   10635119	FORWARD:          0	MERGED:      71229	TO_CACHE:   10563890

LLC Dense regions hint to LLC: 0

RAW hits: 2011752
Loads Generated: 22575657
Loads sent to L1D: 20563906
Stores Generated: 3711164
Stores sent to L1D: 3711168
Major fault: 0 Minor fault: 9879
Allocated PAGES: 9879
=== CPU 0 L1D Prefetcher Statistics ===
[MLOP] History of tracked zone:
IIIIIIIIIIIIIIIIIIIIIIIIIIIIIIIIIIIIIIIIIIIIIIIIIIIIIIIIIIIIIIII
IIIIIIIIIIIIIIIIIIIIIIIIIIIIIIIIIIIIIIIIIIIIII2IIIIIIIII2III1IIA
IIIIIIIIIIIIIIIIIIIIIIIIIIIIIIIIIIIIIIIIIIIII22IIIIIIII22II11IAA
IIIIIIIIIIIIIIIIIIIIIIIIIIIIIIIIIIIIIIIIIIII222IIIIIII222I111AAA
IIIIIIIIIIIIIIIIIIIIIIIIIIIIIIIIIIIIIIIIIII2222IIIIII2222111AAAA
IIIIIIIIIIIIIIIIIIIIIIIIIIIIIIIIIIIIIIIIII22222IIIII2222111AAAAA
IIIIIIIIIIIIIIIIIIIIIIIIIIIIIIIIIIIIIIIII222222IIII2222111AAAAAA
IIIIIIIIIIIIIIIIIIIIIIIIIIIIIIIIIIIIIIIII222222III2222111AAAAAAA
IIIIIIIIIIIIIIIIIIIIIIIIIIIIIIIIIIIIIIII2222222III2222111AAAAAAA
IIIIIIIIIIIIIIIIIIIIIIIIIIIIIIIIIIIIIIII2222222III222211AAAAAAAA
IIIIIIIIIIIIIIIIIIIIIIIIIIIIIIIIIIIIIIII2221221III222211AAAAAAAA
IIIIIIIIIIIIIIIIIIIIIIIIIIIIIIIIIIII1III2221221III222211AAAAAAAA
IIIIIIIIIIIIIIIIIIIIIIIIIIIIIIIIIIII1III2221211III22221AAAAAAAAA
IIIIIIIIIIIIIIIIIIIIIIIIIIIIIIIIIII11III2211211III22221AAAAAAAAA
IIIIIIIIIIIIIIIIIIIIIIIIIIIIIIIIIII11III2211211III2222AAAAAAAAAA
IIIIIIIIIIIIIIIIIIII2IIIIII2IIIIII111III2111111III2222AAAAAAAAAA
IIIIIIIIIIIIIIIIIII22IIIII22IIIII1111III1111111III222AAAAAAAAAAA
IIIIIIIIIIIIIIIIII222IIII222IIII11111II11111111III22AAAAAAAAAAAA
IIIIIIIIIIIIIIIII2222III2222III111111I111111111III2AAAAAAAAAAAAA
IIIIIIIIIIIIIIIII2222III2222III111111I111111111IIIAAAAAAAAAAAAAA
IIIIIIIIIIIIIIIII2222II22222II11111111111111111IIIAAAAAAAAAAAAAA
IIIIIIIIIIIIIIIII2222II22222II11111111111111111IIAAAAAAAAAAAAAAA
IIIIIIIIIIIIIIIII2222II22222I111111111111111111IIAAAAAAAAAAAAAAA
IIIIIIIIIIIIIIIII2222II222221111111111111111111IAAAAAAAAAAAAAAAA
IIIIIIIIIIIIII2II22222I222221111111111111111111IAAAAAAAAAAAAAAAA
IIIIIIIIIIIII22II22222I222211111111111111111111AAAAAAAAAAAAAAAAA
IIIIIIIIIIII222II22222I22211111111111111111111AAAAAAAAAAAAAAAAAA
IIIIIIIIIII2222II22222I2211111111111111111111AAAAAAAAAAAAAAAAAAA
IIIIIIIIII22222II22222I211111111111111111111AAAAAAAAAAAAAAAAAAAA
IIIIIIIII222222I222222I11111111111111111111AAAAAAAAAAAAAAAAAAAAA
IIIIIIII2222222222222211111111111111111111AAAAAAAAAAAAAAAAAAAAAA
IIIIIII2222222222222211111111111111111111AAAAAAAAAAAAAAAAAAAAAAA
IIIIII2222222222222211111111111111111111AAAAAAAAAAAAAAAAAAAAAAAA
IIIIII222222222222221111111111111111111AAAAAAAAAAAAAAAAAAAAAAAAA
IIIIII222222222222211111111111111111111AAAAAAAAAAAAAAAAAAAAAAAAA
IIIIII22222222222211111111111111111111AAAAAAAAAAAAAAAAAAAAAAAAAA
IIII2I22222222222211111111111111111111AAAAAAAAAAAAAAAAAAAAAAAAAA
IIII2I2222222222221111111111111111111AAAAAAAAAAAAAAAAAAAAAAAAAAA
III22I2222222222211111111111111111111AAAAAAAAAAAAAAAAAAAAAAAAAAA
II222I222222222211111111111111111111AAAAAAAAAAAAAAAAAAAAAAAAAAAA
I2222I22222222211111111111111111111AAAAAAAAAAAAAAAAAAAAAAAAAAAAA
22222I2222222211111111111111111111AAAAAAAAAAAAAAAAAAAAAAAAAAAAAA
22222I222222211111111111111111111AAAAAAAAAAAAAAAAAAAAAAAAAAAAAAA
22222222222211111111111111111111AAAAAAAAAAAAAAAAAAAAAAAAAAAAAAAA
2222222222211111111111111111111AAAAAAAAAAAAAAAAAAAAAAAAAAAAAAAAA
222222222211111111111111111111AAAAAAAAAAAAAAAAAAAAAAAAAAAAAAAAAA
22222222211111111111111111111AAAAAAAAAAAAAAAAAAAAAAAAAAAAAAAAAAA
2222222211111111111111111111AAAAAAAAAAAAAAAAAAAAAAAAAAAAAAAAAAAA
222222211111111111111111111AAAAAAAAAAAAAAAAAAAAAAAAAAAAAAAAAAAAA
22222211111111111111111111AAAAAAAAAAAAAAAAAAAAAAAAAAAAAAAAAAAAAA
2222211111111111111111111AAAAAAAAAAAAAAAAAAAAAAAAAAAAAAAAAAAAAAA
222211111111111111111111AAAAAAAAAAAAAAAAAAAAAAAAAAAAAAAAAAAAAAAA
22211111111111111111111AAAAAAAAAAAAAAAAAAAAAAAAAAAAAAAAAAAAAAAAA
2211111111111111111111AAAAAAAAAAAAAAAAAAAAAAAAAAAAAAAAAAAAAAAAAA
211111111111111111111AAAAAAAAAAAAAAAAAAAAAAAAAAAAAAAAAAAAAAAAAAA
11111111111111111111AAAAAAAAAAAAAAAAAAAAAAAAAAAAAAAAAAAAAAAAAAAA
1111111111111111111AAAAAAAAAAAAAAAAAAAAAAAAAAAAAAAAAAAAAAAAAAAAA
111111111111111111AAAAAAAAAAAAAAAAAAAAAAAAAAAAAAAAAAAAAAAAAAAAAA
11111111111111111AAAAAAAAAAAAAAAAAAAAAAAAAAAAAAAAAAAAAAAAAAAAAAA
1111111111111111AAAAAAAAAAAAAAAAAAAAAAAAAAAAAAAAAAAAAAAAAAAAAAAA
111111111111111AAAAAAAAAAAAAAAAAAAAAAAAAAAAAAAAAAAAAAAAAAAAAAAAA
11111111111111AAAAAAAAAAAAAAAAAAAAAAAAAAAAAAAAAAAAAAAAAAAAAAAAAA
1111111111111AAAAAAAAAAAAAAAAAAAAAAAAAAAAAAAAAAAAAAAAAAAAAAAAAAA
111111111111AAAAAAAAAAAAAAAAAAAAAAAAAAAAAAAAAAAAAAAAAAAAAAAAAAAA
11111111111AAAAAAAAAAAAAAAAAAAAAAAAAAAAAAAAAAAAAAAAAAAAAAAAAAAAA
1111111111AAAAAAAAAAAAAAAAAAAAAAAAAAAAAAAAAAAAAAAAAAAAAAAAAAAAAA
111111111AAAAAAAAAAAAAAAAAAAAAAAAAAAAAAAAAAAAAAAAAAAAAAAAAAAAAAA
11111111AAAAAAAAAAAAAAAAAAAAAAAAAAAAAAAAAAAAAAAAAAAAAAAAAAAAAAAA
1111111AAAAAAAAAAAAAAAAAAAAAAAAAAAAAAAAAAAAAAAAAAAAAAAAAAAAAAAAA
111111AAAAAAAAAAAAAAAAAAAAAAAAAAAAAAAAAAAAAAAAAAAAAAAAAAAAAAAAAA
11111AAAAAAAAAAAAAAAAAAAAAAAAAAAAAAAAAAAAAAAAAAAAAAAAAAAAAAAAAAA
1111AAAAAAAAAAAAAAAAAAAAAAAAAAAAAAAAAAAAAAAAAAAAAAAAAAAAAAAAAAAA
111AAAAAAAAAAAAAAAAAAAAAAAAAAAAAAAAAAAAAAAAAAAAAAAAAAAAAAAAAAAAA
11AAAAAAAAAAAAAAAAAAAAAAAAAAAAAAAAAAAAAAAAAAAAAAAAAAAAAAAAAAAAAA
1AAAAAAAAAAAAAAAAAAAAAAAAAAAAAAAAAAAAAAAAAAAAAAAAAAAAAAAAAAAAAAA
AAAAAAAAAAAAAAAAAAAAAAAAAAAAAAAAAAAAAAAAAAAAAAAAAAAAAAAAAAAAAAAA
IIIIIIIIIIIIIIIIIIIIIIIIIIIIIIIIIIIIIIIIIIIIIIIIIIIIIIIIIIIIIIIA
IIIIIIIIIIIIIIIIIIIIIIIIIIIIIIIIIIIIIIIIIIIIIIIIIIIII1IIIIII1IIA
IIIIIIIIIIIIIIIIIIIIIIIIIIIIIIIIIIII11IIIII1IIIIII1II1IIIIII1IIA
IIIIIIIIIIIIIIIIIIIIIIIIIIIIIIIIIII111IIII11IIIII11I11IIIII11IAA
IIIIIIIIIIIIIIIIIIIIIIIIIIIIIIIIII1111III111IIII111111IIII111AAA
IIIIIIIIIIIIIIIIIIIIIIIIIIIIIIIII11111II1111III1111111III111AAAA
IIIIIIIIIIIIIIIIIIIIIIIIIIIIIIIII11111II1111III1111111II111AAAAA
IIIIIIIIIIIIIIIIIIIIIIIIIIIIIIIII11111II1111II11111111II111AAAAA
IIIIIIIIIIIIIIIIIIIIIIIIIIIIIIIII11111II1111II11111111II11AAAAAA
IIIIIIIIIIIIIIIIIIIIIIIIIIIIIIIII11111II1111II111111111I1AAAAAAA
IIIIIIIIIIIIIIIIIIIIIIIIIIIIIIIII11111II11111I111111111I1AAAAAAA
IIIIIIIIIIIIIIIIIIIIIIIIIIIII11II11111II11111I111111111IAAAAAAAA
IIIIIIIIIIIIIIIIIIIIIIIIIIIII11II11111II11111I111111111AAAAAAAAA
IIIIIIIIIIIIIIIIIIIIIIIIIIII111II11111II111111111111111AAAAAAAAA
IIIIIIIIIIIIIIIIIIIIIIIIIII1111II11111II11111111111111AAAAAAAAAA
IIIIIIIIIIIIIIIIIIIIIIIIII11111II11111II1111111111111AAAAAAAAAAA
IIIIIIIIIIIIIIIIIIIIIIIII111111I111111I1111111111111AAAAAAAAAAAA
IIIIIIIIIIIIIIIIIIIIIIII111111111111111111111111111AAAAAAAAAAAAA
IIIIIIIIIIIIIIIIIIIIIII111111111111111111111111111AAAAAAAAAAAAAA
IIIIIIIIIIIIIIIIIIIIII111111111111111111111111111AAAAAAAAAAAAAAA
IIIIIIIIIIIIIIIIIIIII111111111111111111111111111AAAAAAAAAAAAAAAA
IIIIIIIIIIIIIIIIIIII111111111111111111111111111AAAAAAAAAAAAAAAAA
IIIIIIIIIIIIIIIIIII111111111111111111111111111AAAAAAAAAAAAAAAAAA
IIIIIIIIIIIIIIIIII111111111111111111111111111AAAAAAAAAAAAAAAAAAA
IIIIIIIIIIIIIIIII111111111111111111111111111AAAAAAAAAAAAAAAAAAAA
IIIIIIIIIIIIIIII111111111111111111111111111AAAAAAAAAAAAAAAAAAAAA
IIIIIIIIIIIIIII111111111111111111111111111AAAAAAAAAAAAAAAAAAAAAA
IIIIIIIIIIIIII111111111111111111111111111AAAAAAAAAAAAAAAAAAAAAAA
IIIIIIIIIIIII111111111111111111111111111AAAAAAAAAAAAAAAAAAAAAAAA
IIIIIIIIIIII111111111111111111111111111AAAAAAAAAAAAAAAAAAAAAAAAA
IIIIIIIIIII111111111111111111111111111AAAAAAAAAAAAAAAAAAAAAAAAAA
IIIIIIIIII111111111111111111111111111AAAAAAAAAAAAAAAAAAAAAAAAAAA
IIIIIIIII111111111111111111111111111AAAAAAAAAAAAAAAAAAAAAAAAAAAA
IIIIIIII111111111111111111111111111AAAAAAAAAAAAAAAAAAAAAAAAAAAAA
IIIIIII111111111111111111111111111AAAAAAAAAAAAAAAAAAAAAAAAAAAAAA
IIIIII111111111111111111111111111AAAAAAAAAAAAAAAAAAAAAAAAAAAAAAA
IIIII111111111111111111111111111AAAAAAAAAAAAAAAAAAAAAAAAAAAAAAAA
IIII111111111111111111111111111AAAAAAAAAAAAAAAAAAAAAAAAAAAAAAAAA
III111111111111111111111111111AAAAAAAAAAAAAAAAAAAAAAAAAAAAAAAAAA
II111111111111111111111111111AAAAAAAAAAAAAAAAAAAAAAAAAAAAAAAAAAA
I111111111111111111111111111AAAAAAAAAAAAAAAAAAAAAAAAAAAAAAAAAAAA
111111111111111111111111111AAAAAAAAAAAAAAAAAAAAAAAAAAAAAAAAAAAAA
11111111111111111111111111AAAAAAAAAAAAAAAAAAAAAAAAAAAAAAAAAAAAAA
1111111111111111111111111AAAAAAAAAAAAAAAAAAAAAAAAAAAAAAAAAAAAAAA
111111111111111111111111AAAAAAAAAAAAAAAAAAAAAAAAAAAAAAAAAAAAAAAA
11111111111111111111111AAAAAAAAAAAAAAAAAAAAAAAAAAAAAAAAAAAAAAAAA
1111111111111111111111AAAAAAAAAAAAAAAAAAAAAAAAAAAAAAAAAAAAAAAAAA
111111111111111111111AAAAAAAAAAAAAAAAAAAAAAAAAAAAAAAAAAAAAAAAAAA
11111111111111111111AAAAAAAAAAAAAAAAAAAAAAAAAAAAAAAAAAAAAAAAAAAA
1111111111111111111AAAAAAAAAAAAAAAAAAAAAAAAAAAAAAAAAAAAAAAAAAAAA
111111111111111111AAAAAAAAAAAAAAAAAAAAAAAAAAAAAAAAAAAAAAAAAAAAAA
11111111111111111AAAAAAAAAAAAAAAAAAAAAAAAAAAAAAAAAAAAAAAAAAAAAAA
1111111111111111AAAAAAAAAAAAAAAAAAAAAAAAAAAAAAAAAAAAAAAAAAAAAAAA
111111111111111AAAAAAAAAAAAAAAAAAAAAAAAAAAAAAAAAAAAAAAAAAAAAAAAA
11111111111111AAAAAAAAAAAAAAAAAAAAAAAAAAAAAAAAAAAAAAAAAAAAAAAAAA
1111111111111AAAAAAAAAAAAAAAAAAAAAAAAAAAAAAAAAAAAAAAAAAAAAAAAAAA
111111111111AAAAAAAAAAAAAAAAAAAAAAAAAAAAAAAAAAAAAAAAAAAAAAAAAAAA
11111111111AAAAAAAAAAAAAAAAAAAAAAAAAAAAAAAAAAAAAAAAAAAAAAAAAAAAA
1111111111AAAAAAAAAAAAAAAAAAAAAAAAAAAAAAAAAAAAAAAAAAAAAAAAAAAAAA
111111111AAAAAAAAAAAAAAAAAAAAAAAAAAAAAAAAAAAAAAAAAAAAAAAAAAAAAAA
11111111AAAAAAAAAAAAAAAAAAAAAAAAAAAAAAAAAAAAAAAAAAAAAAAAAAAAAAAA
1111111AAAAAAAAAAAAAAAAAAAAAAAAAAAAAAAAAAAAAAAAAAAAAAAAAAAAAAAAA
111111AAAAAAAAAAAAAAAAAAAAAAAAAAAAAAAAAAAAAAAAAAAAAAAAAAAAAAAAAA
11111AAAAAAAAAAAAAAAAAAAAAAAAAAAAAAAAAAAAAAAAAAAAAAAAAAAAAAAAAAA
1111AAAAAAAAAAAAAAAAAAAAAAAAAAAAAAAAAAAAAAAAAAAAAAAAAAAAAAAAAAAA
111AAAAAAAAAAAAAAAAAAAAAAAAAAAAAAAAAAAAAAAAAAAAAAAAAAAAAAAAAAAAA
11AAAAAAAAAAAAAAAAAAAAAAAAAAAAAAAAAAAAAAAAAAAAAAAAAAAAAAAAAAAAAA
1AAAAAAAAAAAAAAAAAAAAAAAAAAAAAAAAAAAAAAAAAAAAAAAAAAAAAAAAAAAAAAA
AAAAAAAAAAAAAAAAAAAAAAAAAAAAAAAAAAAAAAAAAAAAAAAAAAAAAAAAAAAAAAAA
IIIIIIIIIIIIIIIIIIIIIIIIIIIIIIIIIIIIIIIIIIIIIIIIIIIIIIIIIIIIIIIA
IIIIIIIIIIIIIIIIIIIIIIIIIIIIIIIIIIII11IIIII1IIIIII1II1IIIIII1IIA
IIIIIIIIIIIIIIIIIIIIIIIIIIIIIIIIIII111IIII11IIIII11I11IIIII11IAA
IIIIIIIIIIIIIIIIIIIIIIIIIIIIIIIIII1111III111IIII111111IIII111AAA
IIIIIIIIIIIIIIIIIIIIIIIIIIIIIIIII11111II1111III1111111III111AAAA
IIIIIIIIIIIIIIIIIIIIIIIIIIIIIIIII11111II1111III1111111III11AAAAA
IIIIIIIIIIIIIIIIIIIIIIIIIIIIIIIII11111II1111III1111111II111AAAAA
IIIIIIIIIIIIIIIIIIIIIIIIIIIIIIIII11111II1111III1111111I111AAAAAA
IIIIIIIIIIIIIIIIIIIIIIIIIIIIIIIII11111II1111I1I1111111I111AAAAAA
IIIIIIIIIIIIIIIIIIIIIIIIIIIIIIIII11111II1111I1I1111111I11AAAAAAA
IIIIIIIIIIIIIIIIIIIIIIIIIIIIIIIII11111II1111I1I1111111111AAAAAAA
IIIIIIIIIIIIIIIIIIIIIIIIIIIIIIIII11111II111111I1111111111AAAAAAA
IIIIIIIIIIIIIIIIIIIIIIIIIIIIIIIII11111II1111111111111111AAAAAAAA
IIIIIIIIIIIIIIIIIIIIIIIIIIIII1III11111II1111111111111111AAAAAAAA
IIIIIIIIIIIIIIIIIIIIIIIIIIII11III11111II111111111111111AAAAAAAAA
IIIIIIIIIIIIIIIIIIIIIIIIIII111III11111II11111111111111AAAAAAAAAA
IIIIIIIIIIIIIIIIIIIIIIIIII1111III11111II1111111111111AAAAAAAAAAA
IIIIIIIIIIIIIIIIIIIIIIIII11111II111111I1111111111111AAAAAAAAAAAA
IIIIIIIIIIIIIIIIIIIIIIII111111I11111111111111111111AAAAAAAAAAAAA
IIIIIIIIIIIIIIIIIIIIIII111111111111111111111111111AAAAAAAAAAAAAA
IIIIIIIIIIIIIIIIIIIIII111111111111111111111111111AAAAAAAAAAAAAAA
IIIIIIIIIIIIIIIIIIIII111111111111111111111111111AAAAAAAAAAAAAAAA
IIIIIIIIIIIIIIIIIIII111111111111111111111111111AAAAAAAAAAAAAAAAA
IIIIIIIIIIIIIIIIIII111111111111111111111111111AAAAAAAAAAAAAAAAAA
IIIIIIIIIIIIIIIIII111111111111111111111111111AAAAAAAAAAAAAAAAAAA
IIIIIIIIIIIIIIIII111111111111111111111111111AAAAAAAAAAAAAAAAAAAA
IIIIIIIIIIIIIIII111111111111111111111111111AAAAAAAAAAAAAAAAAAAAA
IIIIIIIIIIIIIII111111111111111111111111111AAAAAAAAAAAAAAAAAAAAAA
IIIIIIIIIIIIII111111111111111111111111111AAAAAAAAAAAAAAAAAAAAAAA
IIIIIIIIIIIIII11111111111111111111111111AAAAAAAAAAAAAAAAAAAAAAAA
IIIIIIIIIIIII111111111111111111111111111AAAAAAAAAAAAAAAAAAAAAAAA
IIIIIIIIIIII111111111111111111111111111AAAAAAAAAAAAAAAAAAAAAAAAA
IIIIIIIIIII111111111111111111111111111AAAAAAAAAAAAAAAAAAAAAAAAAA
IIIIIIIIII111111111111111111111111111AAAAAAAAAAAAAAAAAAAAAAAAAAA
IIIIIIIII111111111111111111111111111AAAAAAAAAAAAAAAAAAAAAAAAAAAA
IIIIIIII111111111111111111111111111AAAAAAAAAAAAAAAAAAAAAAAAAAAAA
IIIIIII111111111111111111111111111AAAAAAAAAAAAAAAAAAAAAAAAAAAAAA
IIIIII111111111111111111111111111AAAAAAAAAAAAAAAAAAAAAAAAAAAAAAA
IIIII111111111111111111111111111AAAAAAAAAAAAAAAAAAAAAAAAAAAAAAAA
IIII111111111111111111111111111AAAAAAAAAAAAAAAAAAAAAAAAAAAAAAAAA
III111111111111111111111111111AAAAAAAAAAAAAAAAAAAAAAAAAAAAAAAAAA
II111111111111111111111111111AAAAAAAAAAAAAAAAAAAAAAAAAAAAAAAAAAA
I111111111111111111111111111AAAAAAAAAAAAAAAAAAAAAAAAAAAAAAAAAAAA
111111111111111111111111111AAAAAAAAAAAAAAAAAAAAAAAAAAAAAAAAAAAAA
11111111111111111111111111AAAAAAAAAAAAAAAAAAAAAAAAAAAAAAAAAAAAAA
1111111111111111111111111AAAAAAAAAAAAAAAAAAAAAAAAAAAAAAAAAAAAAAA
111111111111111111111111AAAAAAAAAAAAAAAAAAAAAAAAAAAAAAAAAAAAAAAA
11111111111111111111111AAAAAAAAAAAAAAAAAAAAAAAAAAAAAAAAAAAAAAAAA
1111111111111111111111AAAAAAAAAAAAAAAAAAAAAAAAAAAAAAAAAAAAAAAAAA
111111111111111111111AAAAAAAAAAAAAAAAAAAAAAAAAAAAAAAAAAAAAAAAAAA
11111111111111111111AAAAAAAAAAAAAAAAAAAAAAAAAAAAAAAAAAAAAAAAAAAA
1111111111111111111AAAAAAAAAAAAAAAAAAAAAAAAAAAAAAAAAAAAAAAAAAAAA
111111111111111111AAAAAAAAAAAAAAAAAAAAAAAAAAAAAAAAAAAAAAAAAAAAAA
11111111111111111AAAAAAAAAAAAAAAAAAAAAAAAAAAAAAAAAAAAAAAAAAAAAAA
1111111111111111AAAAAAAAAAAAAAAAAAAAAAAAAAAAAAAAAAAAAAAAAAAAAAAA
111111111111111AAAAAAAAAAAAAAAAAAAAAAAAAAAAAAAAAAAAAAAAAAAAAAAAA
11111111111111AAAAAAAAAAAAAAAAAAAAAAAAAAAAAAAAAAAAAAAAAAAAAAAAAA
1111111111111AAAAAAAAAAAAAAAAAAAAAAAAAAAAAAAAAAAAAAAAAAAAAAAAAAA
111111111111AAAAAAAAAAAAAAAAAAAAAAAAAAAAAAAAAAAAAAAAAAAAAAAAAAAA
11111111111AAAAAAAAAAAAAAAAAAAAAAAAAAAAAAAAAAAAAAAAAAAAAAAAAAAAA
1111111111AAAAAAAAAAAAAAAAAAAAAAAAAAAAAAAAAAAAAAAAAAAAAAAAAAAAAA
111111111AAAAAAAAAAAAAAAAAAAAAAAAAAAAAAAAAAAAAAAAAAAAAAAAAAAAAAA
11111111AAAAAAAAAAAAAAAAAAAAAAAAAAAAAAAAAAAAAAAAAAAAAAAAAAAAAAAA
1111111AAAAAAAAAAAAAAAAAAAAAAAAAAAAAAAAAAAAAAAAAAAAAAAAAAAAAAAAA
111111AAAAAAAAAAAAAAAAAAAAAAAAAAAAAAAAAAAAAAAAAAAAAAAAAAAAAAAAAA
11111AAAAAAAAAAAAAAAAAAAAAAAAAAAAAAAAAAAAAAAAAAAAAAAAAAAAAAAAAAA
1111AAAAAAAAAAAAAAAAAAAAAAAAAAAAAAAAAAAAAAAAAAAAAAAAAAAAAAAAAAAA
111AAAAAAAAAAAAAAAAAAAAAAAAAAAAAAAAAAAAAAAAAAAAAAAAAAAAAAAAAAAAA
11AAAAAAAAAAAAAAAAAAAAAAAAAAAAAAAAAAAAAAAAAAAAAAAAAAAAAAAAAAAAAA
1AAAAAAAAAAAAAAAAAAAAAAAAAAAAAAAAAAAAAAAAAAAAAAAAAAAAAAAAAAAAAAA
AAAAAAAAAAAAAAAAAAAAAAAAAAAAAAAAAAAAAAAAAAAAAAAAAAAAAAAAAAAAAAAA
IIIIIIIIIIIIIIIIIIIIIIIIIIIIIIIIIIIIIIIIIIIIIIIIIIIIIIII2II1IIIA
IIIIIIIIIIIIIIIIIIIIIIIIII2II1IIIIII1III1II1IIIIII1II1II2II11IIA
IIIIIIIIIIIIIIIIIIIIIIIIII2II1IIIIII1III1II1IIIIII1II1II2II11IAA
IIIIIIIIIIIIIIIIIIIIIIIIII2II1IIIIII1III1II1IIIIII1I11II2II11IAA
IIIIIIIIIIIIIIIIIIIIIIIIII2II1IIIIII1III1II1IIIIII1I11II2I111AAA
IIIIIIIIIIIIIIIIIIIIIIII2I21I1IIII1I1I1I11I1IIII1I1111II2I111AAA
IIIIIIIIIIIIIIIIIIIIIII22I11I1III11I111I11I1III11I1111II2111AAAA
IIIIIIIIIIIIIIIIIIIIIII22I11I1III11I111I11I1III11I1111II111AAAAA
IIIIIIIIIIIIIIIIIIIIIII22I11I1III11I111I11I1II11111111II111AAAAA
IIIIIIIIIIIIIIIIIIIIIII22I11I1III11I111I11I1II11111111I111AAAAAA
IIIIIIIIIIIIIIIIIIIIIII22I11I1III11I111I11I1I111111111I111AAAAAA
IIIIIIIIIIIIIIIIIIIIIII22I11I1III11I111I11I1I111111111111AAAAAAA
IIIIIIIIIIIIIIIIIIIIIII22I11I11II11I111I11I11111111111111AAAAAAA
IIIIIIIIIIIIIIIIIIIIIII12I11I11II11I111I11I11111111111111AAAAAAA
IIIIIIIIIIIIIIIIIIII2II12I11I11II11I111I11I11111111111111AAAAAAA
IIIIIIIIIIIIIIIIIII22I112I11I11II11I111I11I1111111111111AAAAAAAA
IIIIIIIIIIIIIIIIII2221112I11111I1111111I111111111111111AAAAAAAAA
IIIIIIIIIIIIIIIIII2221112I1111111111111I11111111111111AAAAAAAAAA
IIIIIIIIIIIIIIIII22211112I1111111111111I11111111111111AAAAAAAAAA
IIIIIIIIIIIIIIII222111112I1111111111111I1111111111111AAAAAAAAAAA
IIIIIIIIIIIIIII2221111112111111111111111111111111111AAAAAAAAAAAA
IIIIIIIIIIIIII2221111111111111111111111111111111111AAAAAAAAAAAAA
IIIIIIIIIIIIII221111111111111111111111111111111111AAAAAAAAAAAAAA
IIIIIIIIIIIII2221111111111111111111111111111111111AAAAAAAAAAAAAA
IIIIIIIIIIIII222111111111111111111111111111111111AAAAAAAAAAAAAAA
IIIIIIIIIIII2221111111111111111111111111111111111AAAAAAAAAAAAAAA
IIIIIIIIIII2221111111111111111111111111111111111AAAAAAAAAAAAAAAA
IIIIIIIIII2221111111111111111111111111111111111AAAAAAAAAAAAAAAAA
IIIIIIIII2221111111111111111111111111111111111AAAAAAAAAAAAAAAAAA
IIIIIIII2221111111111111111111111111111111111AAAAAAAAAAAAAAAAAAA
IIIIIII2221111111111111111111111111111111111AAAAAAAAAAAAAAAAAAAA
IIIIII2221111111111111111111111111111111111AAAAAAAAAAAAAAAAAAAAA
IIIII2221111111111111111111111111111111111AAAAAAAAAAAAAAAAAAAAAA
IIIII221111111111111111111111111111111111AAAAAAAAAAAAAAAAAAAAAAA
IIII2221111111111111111111111111111111111AAAAAAAAAAAAAAAAAAAAAAA
IIII222111111111111111111111111111111111AAAAAAAAAAAAAAAAAAAAAAAA
IIII221111111111111111111111111111111111AAAAAAAAAAAAAAAAAAAAAAAA
IIII21111111111111111111111111111111111AAAAAAAAAAAAAAAAAAAAAAAAA
II2I21111111111111111111111111111111111AAAAAAAAAAAAAAAAAAAAAAAAA
II2I1111111111111111111111111111111111AAAAAAAAAAAAAAAAAAAAAAAAAA
I22I1111111111111111111111111111111111AAAAAAAAAAAAAAAAAAAAAAAAAA
2221111111111111111111111111111111111AAAAAAAAAAAAAAAAAAAAAAAAAAA
221111111111111111111111111111111111AAAAAAAAAAAAAAAAAAAAAAAAAAAA
21111111111111111111111111111111111AAAAAAAAAAAAAAAAAAAAAAAAAAAAA
1111111111111111111111111111111111AAAAAAAAAAAAAAAAAAAAAAAAAAAAAA
111111111111111111111111111111111AAAAAAAAAAAAAAAAAAAAAAAAAAAAAAA
11111111111111111111111111111111AAAAAAAAAAAAAAAAAAAAAAAAAAAAAAAA
1111111111111111111111111111111AAAAAAAAAAAAAAAAAAAAAAAAAAAAAAAAA
111111111111111111111111111111AAAAAAAAAAAAAAAAAAAAAAAAAAAAAAAAAA
11111111111111111111111111111AAAAAAAAAAAAAAAAAAAAAAAAAAAAAAAAAAA
1111111111111111111111111111AAAAAAAAAAAAAAAAAAAAAAAAAAAAAAAAAAAA
111111111111111111111111111AAAAAAAAAAAAAAAAAAAAAAAAAAAAAAAAAAAAA
11111111111111111111111111AAAAAAAAAAAAAAAAAAAAAAAAAAAAAAAAAAAAAA
1111111111111111111111111AAAAAAAAAAAAAAAAAAAAAAAAAAAAAAAAAAAAAAA
111111111111111111111111AAAAAAAAAAAAAAAAAAAAAAAAAAAAAAAAAAAAAAAA
11111111111111111111111AAAAAAAAAAAAAAAAAAAAAAAAAAAAAAAAAAAAAAAAA
1111111111111111111111AAAAAAAAAAAAAAAAAAAAAAAAAAAAAAAAAAAAAAAAAA
111111111111111111111AAAAAAAAAAAAAAAAAAAAAAAAAAAAAAAAAAAAAAAAAAA
11111111111111111111AAAAAAAAAAAAAAAAAAAAAAAAAAAAAAAAAAAAAAAAAAAA
1111111111111111111AAAAAAAAAAAAAAAAAAAAAAAAAAAAAAAAAAAAAAAAAAAAA
111111111111111111AAAAAAAAAAAAAAAAAAAAAAAAAAAAAAAAAAAAAAAAAAAAAA
11111111111111111AAAAAAAAAAAAAAAAAAAAAAAAAAAAAAAAAAAAAAAAAAAAAAA
1111111111111111AAAAAAAAAAAAAAAAAAAAAAAAAAAAAAAAAAAAAAAAAAAAAAAA
111111111111111AAAAAAAAAAAAAAAAAAAAAAAAAAAAAAAAAAAAAAAAAAAAAAAAA
11111111111111AAAAAAAAAAAAAAAAAAAAAAAAAAAAAAAAAAAAAAAAAAAAAAAAAA
1111111111111AAAAAAAAAAAAAAAAAAAAAAAAAAAAAAAAAAAAAAAAAAAAAAAAAAA
111111111111AAAAAAAAAAAAAAAAAAAAAAAAAAAAAAAAAAAAAAAAAAAAAAAAAAAA
11111111111AAAAAAAAAAAAAAAAAAAAAAAAAAAAAAAAAAAAAAAAAAAAAAAAAAAAA
1111111111AAAAAAAAAAAAAAAAAAAAAAAAAAAAAAAAAAAAAAAAAAAAAAAAAAAAAA
111111111AAAAAAAAAAAAAAAAAAAAAAAAAAAAAAAAAAAAAAAAAAAAAAAAAAAAAAA
11111111AAAAAAAAAAAAAAAAAAAAAAAAAAAAAAAAAAAAAAAAAAAAAAAAAAAAAAAA
1111111AAAAAAAAAAAAAAAAAAAAAAAAAAAAAAAAAAAAAAAAAAAAAAAAAAAAAAAAA
111111AAAAAAAAAAAAAAAAAAAAAAAAAAAAAAAAAAAAAAAAAAAAAAAAAAAAAAAAAA
11111AAAAAAAAAAAAAAAAAAAAAAAAAAAAAAAAAAAAAAAAAAAAAAAAAAAAAAAAAAA
1111AAAAAAAAAAAAAAAAAAAAAAAAAAAAAAAAAAAAAAAAAAAAAAAAAAAAAAAAAAAA
111AAAAAAAAAAAAAAAAAAAAAAAAAAAAAAAAAAAAAAAAAAAAAAAAAAAAAAAAAAAAA
11AAAAAAAAAAAAAAAAAAAAAAAAAAAAAAAAAAAAAAAAAAAAAAAAAAAAAAAAAAAAAA
1AAAAAAAAAAAAAAAAAAAAAAAAAAAAAAAAAAAAAAAAAAAAAAAAAAAAAAAAAAAAAAA
AAAAAAAAAAAAAAAAAAAAAAAAAAAAAAAAAAAAAAAAAAAAAAAAAAAAAAAAAAAAAAAA
IIIIIIIIIIIIIIIIIIIIIIIIIIIIIIIIIIIIIIIIIIIIIIIIIIIII1IIIIIIIIIA
IIIIIIIIIIIIIIIIIIIIIIIIIIIIIIIII2II1IIIIII1IIIIII1II1IIIIIIIIIA
IIIIIIIIIIIIIIIIIIIIIIIIIIIIIIII22I11IIIII11IIIII11I11IIIIIIIIAA
IIIIIIIIIIIIIIIIIIIIIIIIIIIIIIII22I11IIII111IIII111111IIIIIIIAAA
IIIIIIIIIIIIIIIIIIIIIIIIIIIIIII222111IIII111IIII111111IIIIIIIAAA
IIIIIIIIIIIIIIIIIIIIIIIIIIIIIII222111IIII111III1111111IIIIIIAAAA
IIIIIIIIIIIIIIIIIIIIIIIIIIIIIII222111III1111III1111111IIIIIIAAAA
IIIIIIIIIIIIIIIIIIIIIIIIIIIIIII222111III1111III1111111IIIIIAAAAA
IIIIIIIIIIIIIIIIIIIIIIIIIIIIIII222111II11111II11111111IIIIIAAAAA
IIIIIIIIIIIIIIIIIIIIIIIIIIII2II122111I111111I111111111IIIIAAAAAA
IIIIIIIIIIIIIIIIIIIIIIIIIIII2II122111I111111I111111111IIIAAAAAAA
IIIIIIIIIIIIIIIIIIIIIIIIIIII2II12211111111111111111111IIIAAAAAAA
IIIIIIIIIIIIIIIIIIIIIIIIII2I21I12211111111111111111111IIAAAAAAAA
IIIIIIIIIIIIIIIIIIIIIIIIII2I21I12211111111111111111111IAAAAAAAAA
IIIIIIIIIIIIIIIIIIIIIIIII22I11I12211111111111111111111IAAAAAAAAA
IIIIIIIIIIIIIIIIIIIIIIII222111I12211111111111111111111AAAAAAAAAA
IIIIIIIIIIIIIIIIIIIIIII2221111I1211111111111111111111AAAAAAAAAAA
IIIIIIIIIIIIIIIIIIIIII22211111I111111111111111111111AAAAAAAAAAAA
IIIIIIIIIIIIIIIIIIIII222111111I11111111111111111111AAAAAAAAAAAAA
IIIIIIIIIIIIIIIIIIII222111111111111111111111111111AAAAAAAAAAAAAA
IIIIIIIIIIIIIIIIIII222111111111111111111111111111AAAAAAAAAAAAAAA
IIIIIIIIIIIIIIIIII222111111111111111111111111111AAAAAAAAAAAAAAAA
IIIIIIIIIIIIIIIII222111111111111111111111111111AAAAAAAAAAAAAAAAA
IIIIIIIIIIIIIIII222111111111111111111111111111AAAAAAAAAAAAAAAAAA
IIIIIIIIIIIIIII222111111111111111111111111111AAAAAAAAAAAAAAAAAAA
IIIIIIIIIIIIII222111111111111111111111111111AAAAAAAAAAAAAAAAAAAA
IIIIIIIIIIIII222111111111111111111111111111AAAAAAAAAAAAAAAAAAAAA
IIIIIIIIIIII222111111111111111111111111111AAAAAAAAAAAAAAAAAAAAAA
IIIIIIIIIII222111111111111111111111111111AAAAAAAAAAAAAAAAAAAAAAA
IIIIIIIIII222111111111111111111111111111AAAAAAAAAAAAAAAAAAAAAAAA
IIIIIIIIII22111111111111111111111111111AAAAAAAAAAAAAAAAAAAAAAAAA
IIIIIIIII222111111111111111111111111111AAAAAAAAAAAAAAAAAAAAAAAAA
IIIIIIIII22111111111111111111111111111AAAAAAAAAAAAAAAAAAAAAAAAAA
IIIIIIII222111111111111111111111111111AAAAAAAAAAAAAAAAAAAAAAAAAA
IIIIIIII22111111111111111111111111111AAAAAAAAAAAAAAAAAAAAAAAAAAA
IIIIIII222111111111111111111111111111AAAAAAAAAAAAAAAAAAAAAAAAAAA
IIIIII222111111111111111111111111111AAAAAAAAAAAAAAAAAAAAAAAAAAAA
IIIIII22111111111111111111111111111AAAAAAAAAAAAAAAAAAAAAAAAAAAAA
IIIII222111111111111111111111111111AAAAAAAAAAAAAAAAAAAAAAAAAAAAA
IIII222111111111111111111111111111AAAAAAAAAAAAAAAAAAAAAAAAAAAAAA
III222111111111111111111111111111AAAAAAAAAAAAAAAAAAAAAAAAAAAAAAA
II222111111111111111111111111111AAAAAAAAAAAAAAAAAAAAAAAAAAAAAAAA
I222111111111111111111111111111AAAAAAAAAAAAAAAAAAAAAAAAAAAAAAAAA
222111111111111111111111111111AAAAAAAAAAAAAAAAAAAAAAAAAAAAAAAAAA
22111111111111111111111111111AAAAAAAAAAAAAAAAAAAAAAAAAAAAAAAAAAA
2111111111111111111111111111AAAAAAAAAAAAAAAAAAAAAAAAAAAAAAAAAAAA
111111111111111111111111111AAAAAAAAAAAAAAAAAAAAAAAAAAAAAAAAAAAAA
11111111111111111111111111AAAAAAAAAAAAAAAAAAAAAAAAAAAAAAAAAAAAAA
1111111111111111111111111AAAAAAAAAAAAAAAAAAAAAAAAAAAAAAAAAAAAAAA
111111111111111111111111AAAAAAAAAAAAAAAAAAAAAAAAAAAAAAAAAAAAAAAA
11111111111111111111111AAAAAAAAAAAAAAAAAAAAAAAAAAAAAAAAAAAAAAAAA
1111111111111111111111AAAAAAAAAAAAAAAAAAAAAAAAAAAAAAAAAAAAAAAAAA
111111111111111111111AAAAAAAAAAAAAAAAAAAAAAAAAAAAAAAAAAAAAAAAAAA
11111111111111111111AAAAAAAAAAAAAAAAAAAAAAAAAAAAAAAAAAAAAAAAAAAA
1111111111111111111AAAAAAAAAAAAAAAAAAAAAAAAAAAAAAAAAAAAAAAAAAAAA
111111111111111111AAAAAAAAAAAAAAAAAAAAAAAAAAAAAAAAAAAAAAAAAAAAAA
11111111111111111AAAAAAAAAAAAAAAAAAAAAAAAAAAAAAAAAAAAAAAAAAAAAAA
1111111111111111AAAAAAAAAAAAAAAAAAAAAAAAAAAAAAAAAAAAAAAAAAAAAAAA
111111111111111AAAAAAAAAAAAAAAAAAAAAAAAAAAAAAAAAAAAAAAAAAAAAAAAA
11111111111111AAAAAAAAAAAAAAAAAAAAAAAAAAAAAAAAAAAAAAAAAAAAAAAAAA
1111111111111AAAAAAAAAAAAAAAAAAAAAAAAAAAAAAAAAAAAAAAAAAAAAAAAAAA
111111111111AAAAAAAAAAAAAAAAAAAAAAAAAAAAAAAAAAAAAAAAAAAAAAAAAAAA
11111111111AAAAAAAAAAAAAAAAAAAAAAAAAAAAAAAAAAAAAAAAAAAAAAAAAAAAA
1111111111AAAAAAAAAAAAAAAAAAAAAAAAAAAAAAAAAAAAAAAAAAAAAAAAAAAAAA
111111111AAAAAAAAAAAAAAAAAAAAAAAAAAAAAAAAAAAAAAAAAAAAAAAAAAAAAAA
11111111AAAAAAAAAAAAAAAAAAAAAAAAAAAAAAAAAAAAAAAAAAAAAAAAAAAAAAAA
1111111AAAAAAAAAAAAAAAAAAAAAAAAAAAAAAAAAAAAAAAAAAAAAAAAAAAAAAAAA
111111AAAAAAAAAAAAAAAAAAAAAAAAAAAAAAAAAAAAAAAAAAAAAAAAAAAAAAAAAA
11111AAAAAAAAAAAAAAAAAAAAAAAAAAAAAAAAAAAAAAAAAAAAAAAAAAAAAAAAAAA
1111AAAAAAAAAAAAAAAAAAAAAAAAAAAAAAAAAAAAAAAAAAAAAAAAAAAAAAAAAAAA
111AAAAAAAAAAAAAAAAAAAAAAAAAAAAAAAAAAAAAAAAAAAAAAAAAAAAAAAAAAAAA
11AAAAAAAAAAAAAAAAAAAAAAAAAAAAAAAAAAAAAAAAAAAAAAAAAAAAAAAAAAAAAA
1AAAAAAAAAAAAAAAAAAAAAAAAAAAAAAAAAAAAAAAAAAAAAAAAAAAAAAAAAAAAAAA
AAAAAAAAAAAAAAAAAAAAAAAAAAAAAAAAAAAAAAAAAAAAAAAAAAAAAAAAAAAAAAAA
IIIIIIIIIIIIIIIIIIIIIIIIIIIIIIIIIIII1II1IIIIII1IIIIIIIII1IIIIIIA
IIIIIIIIIIIIIIIIIIIIIIIIIIIII2IIIIII1II1IIIIII1IIIIIIIII1IIIIIIA
IIIIIIIIIIIIIIIIIIIIIIIIIIIII2IIIII11I11IIIII11IIIIIIII11IIIIIAA
IIIIIIIIIIIIIIIIIIIIIIIIIIII22IIIII11I11IIIII11IIIIIIII11IIIIIAA
IIIIIIIIIIIIIIIIIIIIIIIIIII222IIII111111IIII111IIIIIII111IIIIAAA
IIIIIIIIIIIIIIIIIIIIIIIIIII222IIII111111IIII111IIIIIII111IIIAAAA
IIIIIIIIIIIIIIIIIIIIIIIIIII222IIII111111IIII111IIIIII1111IIIAAAA
IIIIIIIIIIIIIIIIIIIIIIIIII2222III1111111III1111IIIIII1111IIIAAAA
IIIIIIIIIIIIIIIIIIIIIIIII22222II11111111II11111IIIII11111IIAAAAA
IIIIIIIIIIIIIIIIIIIIIIIII22222II11111111II11111IIIII11111IAAAAAA
IIIIIIIIIIIIIIIIIIIIIIIII22222II11111111II11111IIII111111IAAAAAA
IIIIIIIIIIIIIIIIIIIIIIIII22222II11111111II11111IIII111111AAAAAAA
IIIIIIIIIIIIIIIIIIIIIIIII22222II11111111II11111IIII11111AAAAAAAA
IIIIIIIIIIIIIIIIIIIIIIIII22222II11111111II11111II1I11111AAAAAAAA
IIIIIIIIIIIIIIIIIIIIIIIII22222II11111111II11111I11I1111AAAAAAAAA
IIIIIIIIIIIIIIIIIIIIIIIII22222I111111111II11111I11I1111AAAAAAAAA
IIIIIIIIIIIIIIIIIIIIIIIII22212I111111111II11111I11I1111AAAAAAAAA
IIIIIIIIIIIIIIIIIIIIIIIII222121111111111II11111111I111AAAAAAAAAA
IIIIIIIIIIIIIIIIIIII2IIII221121111111111II11111111I111AAAAAAAAAA
IIIIIIIIIIIIIIIIIII22IIII211111111111111II11111111I11AAAAAAAAAAA
IIIIIIIIIIIIIIIIII222IIII111111111111111II11111111I1AAAAAAAAAAAA
IIIIIIIIIIIIIIIII2222III1111111111111111II11111111IAAAAAAAAAAAAA
IIIIIIIIIIIIIIII22222II11111111111111111II11111111AAAAAAAAAAAAAA
IIIIIIIIIIIIIII222222I111111111111111111II1111111AAAAAAAAAAAAAAA
IIIIIIIIIIIIII22222221111111111111111111I1111111AAAAAAAAAAAAAAAA
IIIIIIIIIIIII2222222111111111111111111111111111AAAAAAAAAAAAAAAAA
IIIIIIIIIIII2222222111111111111111111111111111AAAAAAAAAAAAAAAAAA
IIIIIIIIIII2222222111111111111111111111111111AAAAAAAAAAAAAAAAAAA
IIIIIIIIII2222222111111111111111111111111111AAAAAAAAAAAAAAAAAAAA
IIIIIIIII2222222111111111111111111111111111AAAAAAAAAAAAAAAAAAAAA
IIIIIIII2222222111111111111111111111111111AAAAAAAAAAAAAAAAAAAAAA
IIIIIII2222222111111111111111111111111111AAAAAAAAAAAAAAAAAAAAAAA
IIIIIII222222211111111111111111111111111AAAAAAAAAAAAAAAAAAAAAAAA
IIIIIII222222111111111111111111111111111AAAAAAAAAAAAAAAAAAAAAAAA
IIIIIII22222111111111111111111111111111AAAAAAAAAAAAAAAAAAAAAAAAA
IIIII2I22222111111111111111111111111111AAAAAAAAAAAAAAAAAAAAAAAAA
IIII22I2222111111111111111111111111111AAAAAAAAAAAAAAAAAAAAAAAAAA
IIII22I222211111111111111111111111111AAAAAAAAAAAAAAAAAAAAAAAAAAA
IIII22I22121111111111111111111111111AAAAAAAAAAAAAAAAAAAAAAAAAAAA
II2I22I22121111111111111111111111111AAAAAAAAAAAAAAAAAAAAAAAAAAAA
I22I22I2112111111111111111111111111AAAAAAAAAAAAAAAAAAAAAAAAAAAAA
222I22I111111111111111111111111111AAAAAAAAAAAAAAAAAAAAAAAAAAAAAA
222I22111111111111111111111111111AAAAAAAAAAAAAAAAAAAAAAAAAAAAAAA
222I2111111111111111111111111111AAAAAAAAAAAAAAAAAAAAAAAAAAAAAAAA
222I111111111111111111111111111AAAAAAAAAAAAAAAAAAAAAAAAAAAAAAAAA
222111111111111111111111111111AAAAAAAAAAAAAAAAAAAAAAAAAAAAAAAAAA
22111111111111111111111111111AAAAAAAAAAAAAAAAAAAAAAAAAAAAAAAAAAA
2111111111111111111111111111AAAAAAAAAAAAAAAAAAAAAAAAAAAAAAAAAAAA
111111111111111111111111111AAAAAAAAAAAAAAAAAAAAAAAAAAAAAAAAAAAAA
11111111111111111111111111AAAAAAAAAAAAAAAAAAAAAAAAAAAAAAAAAAAAAA
1111111111111111111111111AAAAAAAAAAAAAAAAAAAAAAAAAAAAAAAAAAAAAAA
111111111111111111111111AAAAAAAAAAAAAAAAAAAAAAAAAAAAAAAAAAAAAAAA
11111111111111111111111AAAAAAAAAAAAAAAAAAAAAAAAAAAAAAAAAAAAAAAAA
1111111111111111111111AAAAAAAAAAAAAAAAAAAAAAAAAAAAAAAAAAAAAAAAAA
111111111111111111111AAAAAAAAAAAAAAAAAAAAAAAAAAAAAAAAAAAAAAAAAAA
11111111111111111111AAAAAAAAAAAAAAAAAAAAAAAAAAAAAAAAAAAAAAAAAAAA
1111111111111111111AAAAAAAAAAAAAAAAAAAAAAAAAAAAAAAAAAAAAAAAAAAAA
111111111111111111AAAAAAAAAAAAAAAAAAAAAAAAAAAAAAAAAAAAAAAAAAAAAA
11111111111111111AAAAAAAAAAAAAAAAAAAAAAAAAAAAAAAAAAAAAAAAAAAAAAA
1111111111111111AAAAAAAAAAAAAAAAAAAAAAAAAAAAAAAAAAAAAAAAAAAAAAAA
111111111111111AAAAAAAAAAAAAAAAAAAAAAAAAAAAAAAAAAAAAAAAAAAAAAAAA
11111111111111AAAAAAAAAAAAAAAAAAAAAAAAAAAAAAAAAAAAAAAAAAAAAAAAAA
1111111111111AAAAAAAAAAAAAAAAAAAAAAAAAAAAAAAAAAAAAAAAAAAAAAAAAAA
111111111111AAAAAAAAAAAAAAAAAAAAAAAAAAAAAAAAAAAAAAAAAAAAAAAAAAAA
11111111111AAAAAAAAAAAAAAAAAAAAAAAAAAAAAAAAAAAAAAAAAAAAAAAAAAAAA
1111111111AAAAAAAAAAAAAAAAAAAAAAAAAAAAAAAAAAAAAAAAAAAAAAAAAAAAAA
111111111AAAAAAAAAAAAAAAAAAAAAAAAAAAAAAAAAAAAAAAAAAAAAAAAAAAAAAA
11111111AAAAAAAAAAAAAAAAAAAAAAAAAAAAAAAAAAAAAAAAAAAAAAAAAAAAAAAA
1111111AAAAAAAAAAAAAAAAAAAAAAAAAAAAAAAAAAAAAAAAAAAAAAAAAAAAAAAAA
111111AAAAAAAAAAAAAAAAAAAAAAAAAAAAAAAAAAAAAAAAAAAAAAAAAAAAAAAAAA
11111AAAAAAAAAAAAAAAAAAAAAAAAAAAAAAAAAAAAAAAAAAAAAAAAAAAAAAAAAAA
1111AAAAAAAAAAAAAAAAAAAAAAAAAAAAAAAAAAAAAAAAAAAAAAAAAAAAAAAAAAAA
111AAAAAAAAAAAAAAAAAAAAAAAAAAAAAAAAAAAAAAAAAAAAAAAAAAAAAAAAAAAAA
11AAAAAAAAAAAAAAAAAAAAAAAAAAAAAAAAAAAAAAAAAAAAAAAAAAAAAAAAAAAAAA
1AAAAAAAAAAAAAAAAAAAAAAAAAAAAAAAAAAAAAAAAAAAAAAAAAAAAAAAAAAAAAAA
AAAAAAAAAAAAAAAAAAAAAAAAAAAAAAAAAAAAAAAAAAAAAAAAAAAAAAAAAAAAAAAA
IIIIIIIIIIIIIIIIIIIIIIIIIIIIIIIIIIII2IIIIII1II1IIIIII1IIIIIIIIIA
IIIIIIIIIIIIIIIIIIIIIIIIIIIIIIIII2II2IIIIII1II1IIIIII1IIIIIIIIIA
IIIIIIIIIIIIIIIIIIIIIIIIIIIIIIIII2II2IIIIII1I11IIIII11IIIIIIIIAA
IIIIIIIIIIIIIIIIIIIIIIIIIIIIIIII22I22IIIII11I11IIIII11IIIIIIIIAA
IIIIIIIIIIIIIIIIIIIIIIIIIIIIIII222222IIII111111IIII111IIIIIIIAAA
IIIIIIIIIIIIIIIIIIIIIIIIIIIIIII222222IIII111111IIII111IIIIIIAAAA
IIIIIIIIIIIIIIIIIIIIIIIIIIIIIII222222IIII111111III1111IIIIIIAAAA
IIIIIIIIIIIIIIIIIIIIIIIIIIIIIII222222IIII111111III1111IIIIIAAAAA
IIIIIIIIIIIIIIIIIIIIIIIIIIIIIII222222II1I111111II11111IIIIIAAAAA
IIIIIIIIIIIIIIIIIIIIIIIIIIIII2I222222II1I111111II11111IIIIIAAAAA
IIIIIIIIIIIIIIIIIIIIIIIIIIIII2I222222I11I111111I111111IIIIAAAAAA
IIIIIIIIIIIIIIIIIIIIIIIIIIII22I222222I11I111111I111111IIIIAAAAAA
IIIIIIIIIIIIIIIIIIIIIIIIIIII22I222222I11I111111I111111IIIAAAAAAA
IIIIIIIIIIIIIIIIIIIIIIIIIIII22I222222I11I1111111111111IIIAAAAAAA
IIIIIIIIIIIIIIIIIIIIIIIIIIII22I222222I11I1111111111111IIAAAAAAAA
IIIIIIIIIIIIIIIIIIIIIIIIII2I22I222221I11I1111111111111IIAAAAAAAA
IIIIIIIIIIIIIIIIIIIIIIIII22I22I222211I11I1111111111111IAAAAAAAAA
IIIIIIIIIIIIIIIIIIIIIIII222222I222111111I1111111111111AAAAAAAAAA
IIIIIIIIIIIIIIIIIIIIIII2222222I221111111I111111111111AAAAAAAAAAA
IIIIIIIIIIIIIIIIIIIIII22222222I211111111I11111111111AAAAAAAAAAAA
IIIIIIIIIIIIIIIIIIIII222222222I111111111I1111111111AAAAAAAAAAAAA
IIIIIIIIIIIIIIIIIIII222222222211111111111111111111AAAAAAAAAAAAAA
IIIIIIIIIIIIIIIIIII222222222211111111111111111111AAAAAAAAAAAAAAA
IIIIIIIIIIIIIIIIII222222222211111111111111111111AAAAAAAAAAAAAAAA
IIIIIIIIIIIIIIIII222222222211111111111111111111AAAAAAAAAAAAAAAAA
IIIIIIIIIIIIIIII222222222211111111111111111111AAAAAAAAAAAAAAAAAA
IIIIIIIIIIIIIII222222222211111111111111111111AAAAAAAAAAAAAAAAAAA
IIIIIIIIIIIIIII22222222211111111111111111111AAAAAAAAAAAAAAAAAAAA
IIIIIIIIIIIIII222222222211111111111111111111AAAAAAAAAAAAAAAAAAAA
IIIIIIIIIIIII222222222211111111111111111111AAAAAAAAAAAAAAAAAAAAA
IIIIIIIIIIII222222222211111111111111111111AAAAAAAAAAAAAAAAAAAAAA
IIIIIIIIIII222222222211111111111111111111AAAAAAAAAAAAAAAAAAAAAAA
IIIIIIIIIII22222222211111111111111111111AAAAAAAAAAAAAAAAAAAAAAAA
IIIIIIIIII222222222211111111111111111111AAAAAAAAAAAAAAAAAAAAAAAA
IIIIIIIIII22222222221111111111111111111AAAAAAAAAAAAAAAAAAAAAAAAA
IIIIIIIIII22222222211111111111111111111AAAAAAAAAAAAAAAAAAAAAAAAA
IIIIIIIIII2222222221111111111111111111AAAAAAAAAAAAAAAAAAAAAAAAAA
IIIIIIIIII2222222211111111111111111111AAAAAAAAAAAAAAAAAAAAAAAAAA
IIIIIIIIII222222211111111111111111111AAAAAAAAAAAAAAAAAAAAAAAAAAA
IIIIIII2II222222211111111111111111111AAAAAAAAAAAAAAAAAAAAAAAAAAA
IIIIIII2II22222211111111111111111111AAAAAAAAAAAAAAAAAAAAAAAAAAAA
IIIIIII2I222222211111111111111111111AAAAAAAAAAAAAAAAAAAAAAAAAAAA
IIIIII22I222222211111111111111111111AAAAAAAAAAAAAAAAAAAAAAAAAAAA
IIIII222222222211111111111111111111AAAAAAAAAAAAAAAAAAAAAAAAAAAAA
IIII222222222211111111111111111111AAAAAAAAAAAAAAAAAAAAAAAAAAAAAA
III222222222211111111111111111111AAAAAAAAAAAAAAAAAAAAAAAAAAAAAAA
II222222222211111111111111111111AAAAAAAAAAAAAAAAAAAAAAAAAAAAAAAA
I222222222211111111111111111111AAAAAAAAAAAAAAAAAAAAAAAAAAAAAAAAA
222222222211111111111111111111AAAAAAAAAAAAAAAAAAAAAAAAAAAAAAAAAA
22222222211111111111111111111AAAAAAAAAAAAAAAAAAAAAAAAAAAAAAAAAAA
2222222211111111111111111111AAAAAAAAAAAAAAAAAAAAAAAAAAAAAAAAAAAA
222222211111111111111111111AAAAAAAAAAAAAAAAAAAAAAAAAAAAAAAAAAAAA
22222211111111111111111111AAAAAAAAAAAAAAAAAAAAAAAAAAAAAAAAAAAAAA
2222211111111111111111111AAAAAAAAAAAAAAAAAAAAAAAAAAAAAAAAAAAAAAA
222211111111111111111111AAAAAAAAAAAAAAAAAAAAAAAAAAAAAAAAAAAAAAAA
22211111111111111111111AAAAAAAAAAAAAAAAAAAAAAAAAAAAAAAAAAAAAAAAA
2211111111111111111111AAAAAAAAAAAAAAAAAAAAAAAAAAAAAAAAAAAAAAAAAA
211111111111111111111AAAAAAAAAAAAAAAAAAAAAAAAAAAAAAAAAAAAAAAAAAA
11111111111111111111AAAAAAAAAAAAAAAAAAAAAAAAAAAAAAAAAAAAAAAAAAAA
1111111111111111111AAAAAAAAAAAAAAAAAAAAAAAAAAAAAAAAAAAAAAAAAAAAA
111111111111111111AAAAAAAAAAAAAAAAAAAAAAAAAAAAAAAAAAAAAAAAAAAAAA
11111111111111111AAAAAAAAAAAAAAAAAAAAAAAAAAAAAAAAAAAAAAAAAAAAAAA
1111111111111111AAAAAAAAAAAAAAAAAAAAAAAAAAAAAAAAAAAAAAAAAAAAAAAA
111111111111111AAAAAAAAAAAAAAAAAAAAAAAAAAAAAAAAAAAAAAAAAAAAAAAAA
11111111111111AAAAAAAAAAAAAAAAAAAAAAAAAAAAAAAAAAAAAAAAAAAAAAAAAA
1111111111111AAAAAAAAAAAAAAAAAAAAAAAAAAAAAAAAAAAAAAAAAAAAAAAAAAA
111111111111AAAAAAAAAAAAAAAAAAAAAAAAAAAAAAAAAAAAAAAAAAAAAAAAAAAA
11111111111AAAAAAAAAAAAAAAAAAAAAAAAAAAAAAAAAAAAAAAAAAAAAAAAAAAAA
1111111111AAAAAAAAAAAAAAAAAAAAAAAAAAAAAAAAAAAAAAAAAAAAAAAAAAAAAA
111111111AAAAAAAAAAAAAAAAAAAAAAAAAAAAAAAAAAAAAAAAAAAAAAAAAAAAAAA
11111111AAAAAAAAAAAAAAAAAAAAAAAAAAAAAAAAAAAAAAAAAAAAAAAAAAAAAAAA
1111111AAAAAAAAAAAAAAAAAAAAAAAAAAAAAAAAAAAAAAAAAAAAAAAAAAAAAAAAA
111111AAAAAAAAAAAAAAAAAAAAAAAAAAAAAAAAAAAAAAAAAAAAAAAAAAAAAAAAAA
11111AAAAAAAAAAAAAAAAAAAAAAAAAAAAAAAAAAAAAAAAAAAAAAAAAAAAAAAAAAA
1111AAAAAAAAAAAAAAAAAAAAAAAAAAAAAAAAAAAAAAAAAAAAAAAAAAAAAAAAAAAA
111AAAAAAAAAAAAAAAAAAAAAAAAAAAAAAAAAAAAAAAAAAAAAAAAAAAAAAAAAAAAA
11AAAAAAAAAAAAAAAAAAAAAAAAAAAAAAAAAAAAAAAAAAAAAAAAAAAAAAAAAAAAAA
1AAAAAAAAAAAAAAAAAAAAAAAAAAAAAAAAAAAAAAAAAAAAAAAAAAAAAAAAAAAAAAA
AAAAAAAAAAAAAAAAAAAAAAAAAAAAAAAAAAAAAAAAAAAAAAAAAAAAAAAAAAAAAAAA
IIIIIIIIIIIIIIIIIIIIIIIIIIIIIIIIIIIIIIIIIIIIIIIIIIIIIIIIIIIIIIIA
IIIIIIIIIIIIIIIIIIIIIIIIIIIIIIIIIIIIIIIIIIIIIIIIIIIII1IIIIII1IIA
IIIIIIIIIIIIIIIIIIIIIIIIIIIIIIIIIIIIIIIIIIIIIIIIIIII11IIIII11IAA
IIIIIIIIIIIIIIIIIIIIIIIIIIII2IIIIII1IIIIII1IIIIII1II11IIIII11IAA
IIIIIIIIIIIIIIIIIIIIIIIIIIII2IIIIII1IIIIII1IIIIII1I111IIII111AAA
IIIIIIIIIIIIIIIIIIIIIIIIIIII2IIIII11IIIII11IIIII11I111IIII111AAA
IIIIIIIIIIIIIIIIIIIIIIIIIIII2IIIII11IIIII11IIIII11I111III111AAAA
IIIIIIIIIIIIIIIIIIIIIIIIIIII2IIIII11IIIII11IIIII11I111II111AAAAA
IIIIIIIIIIIIIIIIIIIIIIIIIIII2IIIII11IIIII11III1I11I111II111AAAAA
IIIIIIIIIIIIIIIIIIIIIIIIIIII2IIIII11IIIII11III1I11I111II11AAAAAA
IIIIIIIIIIIIIIIIIIIIIIII2III2II1II11II1II11II11I11I111I111AAAAAA
IIIIIIIIIIIIIIIIIIIIIII22III2I11II11I11II11I111111I111111AAAAAAA
IIIIIIIIIIIIIIIIIIIIIII22III2111II11111II111111111I11111AAAAAAAA
IIIIIIIIIIIIIIIIIIIIII222III2111II11111II111111111I11111AAAAAAAA
IIIIIIIIIIIIIIIIIIIII2222III1111II11111II111111111I1111AAAAAAAAA
IIIIIIIIIIIIIIIIIIII22222II11111II11111II111111111I111AAAAAAAAAA
IIIIIIIIIIIIIIIIIII222222I111111I111111I1111111111111AAAAAAAAAAA
IIIIIIIIIIIIIIIIII2222222111111111111111111111111111AAAAAAAAAAAA
IIIIIIIIIIIIIIIII2222222111111111111111111111111111AAAAAAAAAAAAA
IIIIIIIIIIIIIIII2222222111111111111111111111111111AAAAAAAAAAAAAA
IIIIIIIIIIIIIII2222222111111111111111111111111111AAAAAAAAAAAAAAA
IIIIIIIIIIIIII2222222111111111111111111111111111AAAAAAAAAAAAAAAA
IIIIIIIIIIIII2222222111111111111111111111111111AAAAAAAAAAAAAAAAA
IIIIIIIIIIII2222222111111111111111111111111111AAAAAAAAAAAAAAAAAA
IIIIIIIIIII2222222111111111111111111111111111AAAAAAAAAAAAAAAAAAA
IIIIIIIIII2222222111111111111111111111111111AAAAAAAAAAAAAAAAAAAA
IIIIIIIII2222222111111111111111111111111111AAAAAAAAAAAAAAAAAAAAA
IIIIIIII2222222111111111111111111111111111AAAAAAAAAAAAAAAAAAAAAA
IIIIIII2222222111111111111111111111111111AAAAAAAAAAAAAAAAAAAAAAA
IIIIIII222222111111111111111111111111111AAAAAAAAAAAAAAAAAAAAAAAA
IIIIII2222222111111111111111111111111111AAAAAAAAAAAAAAAAAAAAAAAA
IIIII2222222111111111111111111111111111AAAAAAAAAAAAAAAAAAAAAAAAA
IIIII222222111111111111111111111111111AAAAAAAAAAAAAAAAAAAAAAAAAA
IIIII22222211111111111111111111111111AAAAAAAAAAAAAAAAAAAAAAAAAAA
III2I22222111111111111111111111111111AAAAAAAAAAAAAAAAAAAAAAAAAAA
II22I2222111111111111111111111111111AAAAAAAAAAAAAAAAAAAAAAAAAAAA
II22I222111111111111111111111111111AAAAAAAAAAAAAAAAAAAAAAAAAAAAA
I222I222111111111111111111111111111AAAAAAAAAAAAAAAAAAAAAAAAAAAAA
2222I22111111111111111111111111111AAAAAAAAAAAAAAAAAAAAAAAAAAAAAA
2222I2111111111111111111111111111AAAAAAAAAAAAAAAAAAAAAAAAAAAAAAA
2222I111111111111111111111111111AAAAAAAAAAAAAAAAAAAAAAAAAAAAAAAA
2222111111111111111111111111111AAAAAAAAAAAAAAAAAAAAAAAAAAAAAAAAA
222111111111111111111111111111AAAAAAAAAAAAAAAAAAAAAAAAAAAAAAAAAA
22111111111111111111111111111AAAAAAAAAAAAAAAAAAAAAAAAAAAAAAAAAAA
2111111111111111111111111111AAAAAAAAAAAAAAAAAAAAAAAAAAAAAAAAAAAA
111111111111111111111111111AAAAAAAAAAAAAAAAAAAAAAAAAAAAAAAAAAAAA
11111111111111111111111111AAAAAAAAAAAAAAAAAAAAAAAAAAAAAAAAAAAAAA
1111111111111111111111111AAAAAAAAAAAAAAAAAAAAAAAAAAAAAAAAAAAAAAA
111111111111111111111111AAAAAAAAAAAAAAAAAAAAAAAAAAAAAAAAAAAAAAAA
11111111111111111111111AAAAAAAAAAAAAAAAAAAAAAAAAAAAAAAAAAAAAAAAA
1111111111111111111111AAAAAAAAAAAAAAAAAAAAAAAAAAAAAAAAAAAAAAAAAA
111111111111111111111AAAAAAAAAAAAAAAAAAAAAAAAAAAAAAAAAAAAAAAAAAA
11111111111111111111AAAAAAAAAAAAAAAAAAAAAAAAAAAAAAAAAAAAAAAAAAAA
1111111111111111111AAAAAAAAAAAAAAAAAAAAAAAAAAAAAAAAAAAAAAAAAAAAA
111111111111111111AAAAAAAAAAAAAAAAAAAAAAAAAAAAAAAAAAAAAAAAAAAAAA
11111111111111111AAAAAAAAAAAAAAAAAAAAAAAAAAAAAAAAAAAAAAAAAAAAAAA
1111111111111111AAAAAAAAAAAAAAAAAAAAAAAAAAAAAAAAAAAAAAAAAAAAAAAA
111111111111111AAAAAAAAAAAAAAAAAAAAAAAAAAAAAAAAAAAAAAAAAAAAAAAAA
11111111111111AAAAAAAAAAAAAAAAAAAAAAAAAAAAAAAAAAAAAAAAAAAAAAAAAA
1111111111111AAAAAAAAAAAAAAAAAAAAAAAAAAAAAAAAAAAAAAAAAAAAAAAAAAA
111111111111AAAAAAAAAAAAAAAAAAAAAAAAAAAAAAAAAAAAAAAAAAAAAAAAAAAA
11111111111AAAAAAAAAAAAAAAAAAAAAAAAAAAAAAAAAAAAAAAAAAAAAAAAAAAAA
1111111111AAAAAAAAAAAAAAAAAAAAAAAAAAAAAAAAAAAAAAAAAAAAAAAAAAAAAA
111111111AAAAAAAAAAAAAAAAAAAAAAAAAAAAAAAAAAAAAAAAAAAAAAAAAAAAAAA
11111111AAAAAAAAAAAAAAAAAAAAAAAAAAAAAAAAAAAAAAAAAAAAAAAAAAAAAAAA
1111111AAAAAAAAAAAAAAAAAAAAAAAAAAAAAAAAAAAAAAAAAAAAAAAAAAAAAAAAA
111111AAAAAAAAAAAAAAAAAAAAAAAAAAAAAAAAAAAAAAAAAAAAAAAAAAAAAAAAAA
11111AAAAAAAAAAAAAAAAAAAAAAAAAAAAAAAAAAAAAAAAAAAAAAAAAAAAAAAAAAA
1111AAAAAAAAAAAAAAAAAAAAAAAAAAAAAAAAAAAAAAAAAAAAAAAAAAAAAAAAAAAA
111AAAAAAAAAAAAAAAAAAAAAAAAAAAAAAAAAAAAAAAAAAAAAAAAAAAAAAAAAAAAA
11AAAAAAAAAAAAAAAAAAAAAAAAAAAAAAAAAAAAAAAAAAAAAAAAAAAAAAAAAAAAAA
1AAAAAAAAAAAAAAAAAAAAAAAAAAAAAAAAAAAAAAAAAAAAAAAAAAAAAAAAAAAAAAA
AAAAAAAAAAAAAAAAAAAAAAAAAAAAAAAAAAAAAAAAAAAAAAAAAAAAAAAAAAAAAAAA
IIIIIIIIIIIIIIIIIIIIIIIIIIIIIIIII2II2IIIIII1II1III1II1IIIIIIIIIA
IIIIIIIIIIIIIIIIIIIIIIIIIIIIIIIII2I22IIIII11I11II11I11IIIIIIIIAA
IIIIIIIIIIIIIIIIIIIIIIIIIIIIIIII22I22IIIII11I11II11I11IIIIIIIIAA
IIIIIIIIIIIIIIIIIIIIIIIIIIIIIIII22I22IIII111111I111111IIIIIIIAAA
IIIIIIIIIIIIIIIIIIIIIIIIIIIIIII222222IIII111111I111111IIIIIIIAAA
IIIIIIIIIIIIIIIIIIIIIIIIIIIIII2222222III11111111111111IIIIIIAAAA
IIIIIIIIIIIIIIIIIIIIIIIIIIIIII2222222III11111111111111IIIIIAAAAA
IIIIIIIIIIIIIIIIIIIIIIIIIIIII22222222II111111111111111IIIIIAAAAA
IIIIIIIIIIIIIIIIIIIIIIIIIIIII22222222II111111111111111IIIIAAAAAA
IIIIIIIIIIIIIIIIIIIIIIIIIIIII22222222I1111111111111111IIIIAAAAAA
IIIIIIIIIIIIIIIIIIIIIIIIIIIII22222222I1111111111111111IIIAAAAAAA
IIIIIIIIIIIIIIIIIIIIIIIIIII2I2222222211111111111111111IIIAAAAAAA
IIIIIIIIIIIIIIIIIIIIIIIIIII2I2222222211111111111111111IIAAAAAAAA
IIIIIIIIIIIIIIIIIIIIIIIIIII2I2222222111111111111111111IIAAAAAAAA
IIIIIIIIIIIIIIIIIIIIIIIII2I222222221111111111111111111IAAAAAAAAA
IIIIIIIIIIIIIIIIIIIIIIII22I222222211111111111111111111AAAAAAAAAA
IIIIIIIIIIIIIIIIIIIIIII222222222211111111111111111111AAAAAAAAAAA
IIIIIIIIIIIIIIIIIIIIII222222222211111111111111111111AAAAAAAAAAAA
IIIIIIIIIIIIIIIIIIIII222222222211111111111111111111AAAAAAAAAAAAA
IIIIIIIIIIIIIIIIIIII222222222211111111111111111111AAAAAAAAAAAAAA
IIIIIIIIIIIIIIIIIIII22222222211111111111111111111AAAAAAAAAAAAAAA
IIIIIIIIIIIIIIIIII2I2222222211111111111111111111AAAAAAAAAAAAAAAA
IIIIIIIIIIIIIIIII22I222222211111111111111111111AAAAAAAAAAAAAAAAA
IIIIIIIIIIIIIIII222222222211111111111111111111AAAAAAAAAAAAAAAAAA
IIIIIIIIIIIIIII222222222211111111111111111111AAAAAAAAAAAAAAAAAAA
IIIIIIIIIIIIIII22222222211111111111111111111AAAAAAAAAAAAAAAAAAAA
IIIIIIIIIIIIII222222222211111111111111111111AAAAAAAAAAAAAAAAAAAA
IIIIIIIIIIIII222222222211111111111111111111AAAAAAAAAAAAAAAAAAAAA
IIIIIIIIIIII222222222211111111111111111111AAAAAAAAAAAAAAAAAAAAAA
IIIIIIIIIII222222222211111111111111111111AAAAAAAAAAAAAAAAAAAAAAA
IIIIIIIIIII22222222211111111111111111111AAAAAAAAAAAAAAAAAAAAAAAA
IIIIIIIIII222222222211111111111111111111AAAAAAAAAAAAAAAAAAAAAAAA
IIIIIIIIII22222222221111111111111111111AAAAAAAAAAAAAAAAAAAAAAAAA
IIIIIIIIII22222222211111111111111111111AAAAAAAAAAAAAAAAAAAAAAAAA
IIIIIIIII222222222211111111111111111111AAAAAAAAAAAAAAAAAAAAAAAAA
IIIIIIII222222222211111111111111111111AAAAAAAAAAAAAAAAAAAAAAAAAA
IIIIIII222222222211111111111111111111AAAAAAAAAAAAAAAAAAAAAAAAAAA
IIIIIII22222222211111111111111111111AAAAAAAAAAAAAAAAAAAAAAAAAAAA
IIIIIII2222222221111111111111111111AAAAAAAAAAAAAAAAAAAAAAAAAAAAA
IIIII2I2222222211111111111111111111AAAAAAAAAAAAAAAAAAAAAAAAAAAAA
IIII22I222222211111111111111111111AAAAAAAAAAAAAAAAAAAAAAAAAAAAAA
III222222222211111111111111111111AAAAAAAAAAAAAAAAAAAAAAAAAAAAAAA
II222222222211111111111111111111AAAAAAAAAAAAAAAAAAAAAAAAAAAAAAAA
I222222222211111111111111111111AAAAAAAAAAAAAAAAAAAAAAAAAAAAAAAAA
222222222211111111111111111111AAAAAAAAAAAAAAAAAAAAAAAAAAAAAAAAAA
22222222211111111111111111111AAAAAAAAAAAAAAAAAAAAAAAAAAAAAAAAAAA
2222222211111111111111111111AAAAAAAAAAAAAAAAAAAAAAAAAAAAAAAAAAAA
222222211111111111111111111AAAAAAAAAAAAAAAAAAAAAAAAAAAAAAAAAAAAA
22222211111111111111111111AAAAAAAAAAAAAAAAAAAAAAAAAAAAAAAAAAAAAA
2222211111111111111111111AAAAAAAAAAAAAAAAAAAAAAAAAAAAAAAAAAAAAAA
222211111111111111111111AAAAAAAAAAAAAAAAAAAAAAAAAAAAAAAAAAAAAAAA
22211111111111111111111AAAAAAAAAAAAAAAAAAAAAAAAAAAAAAAAAAAAAAAAA
2211111111111111111111AAAAAAAAAAAAAAAAAAAAAAAAAAAAAAAAAAAAAAAAAA
211111111111111111111AAAAAAAAAAAAAAAAAAAAAAAAAAAAAAAAAAAAAAAAAAA
21111111111111111111AAAAAAAAAAAAAAAAAAAAAAAAAAAAAAAAAAAAAAAAAAAA
11111111111111111111AAAAAAAAAAAAAAAAAAAAAAAAAAAAAAAAAAAAAAAAAAAA
1111111111111111111AAAAAAAAAAAAAAAAAAAAAAAAAAAAAAAAAAAAAAAAAAAAA
111111111111111111AAAAAAAAAAAAAAAAAAAAAAAAAAAAAAAAAAAAAAAAAAAAAA
11111111111111111AAAAAAAAAAAAAAAAAAAAAAAAAAAAAAAAAAAAAAAAAAAAAAA
1111111111111111AAAAAAAAAAAAAAAAAAAAAAAAAAAAAAAAAAAAAAAAAAAAAAAA
111111111111111AAAAAAAAAAAAAAAAAAAAAAAAAAAAAAAAAAAAAAAAAAAAAAAAA
11111111111111AAAAAAAAAAAAAAAAAAAAAAAAAAAAAAAAAAAAAAAAAAAAAAAAAA
1111111111111AAAAAAAAAAAAAAAAAAAAAAAAAAAAAAAAAAAAAAAAAAAAAAAAAAA
111111111111AAAAAAAAAAAAAAAAAAAAAAAAAAAAAAAAAAAAAAAAAAAAAAAAAAAA
11111111111AAAAAAAAAAAAAAAAAAAAAAAAAAAAAAAAAAAAAAAAAAAAAAAAAAAAA
1111111111AAAAAAAAAAAAAAAAAAAAAAAAAAAAAAAAAAAAAAAAAAAAAAAAAAAAAA
111111111AAAAAAAAAAAAAAAAAAAAAAAAAAAAAAAAAAAAAAAAAAAAAAAAAAAAAAA
11111111AAAAAAAAAAAAAAAAAAAAAAAAAAAAAAAAAAAAAAAAAAAAAAAAAAAAAAAA
1111111AAAAAAAAAAAAAAAAAAAAAAAAAAAAAAAAAAAAAAAAAAAAAAAAAAAAAAAAA
111111AAAAAAAAAAAAAAAAAAAAAAAAAAAAAAAAAAAAAAAAAAAAAAAAAAAAAAAAAA
11111AAAAAAAAAAAAAAAAAAAAAAAAAAAAAAAAAAAAAAAAAAAAAAAAAAAAAAAAAAA
1111AAAAAAAAAAAAAAAAAAAAAAAAAAAAAAAAAAAAAAAAAAAAAAAAAAAAAAAAAAAA
111AAAAAAAAAAAAAAAAAAAAAAAAAAAAAAAAAAAAAAAAAAAAAAAAAAAAAAAAAAAAA
11AAAAAAAAAAAAAAAAAAAAAAAAAAAAAAAAAAAAAAAAAAAAAAAAAAAAAAAAAAAAAA
1AAAAAAAAAAAAAAAAAAAAAAAAAAAAAAAAAAAAAAAAAAAAAAAAAAAAAAAAAAAAAAA
AAAAAAAAAAAAAAAAAAAAAAAAAAAAAAAAAAAAAAAAAAAAAAAAAAAAAAAAAAAAAAAA
IIIIIIIIIIIIIIIIIIIIIIIIIIIIIIIIIIIIIIIIIIIIIIIIIIIIIIIIIIIIIIIA
IIIIIIIIIIIIIIIIIIIIIIIIIIIIIIIIIIIIIIIIIII1IIIIII1II1IIIIIIIIIA
IIIIIIIIIIIIIIIIIIIIIIIIIIII2IIIIII1IIIIII11IIIII11I11IIIIIIIIAA
IIIIIIIIIIIIIIIIIIIIIIIIIII22IIIII11IIIII111IIII111111IIIIIIIAAA
IIIIIIIIIIIIIIIIIIIIIIIIIII22IIIII11IIIII111IIII111111IIIIIIAAAA
IIIIIIIIIIIIIIIIIIIIIIIIIII22IIIII11IIIII111IIII111111IIIIIAAAAA
IIIIIIIIIIIIIIIIIIIIIIIIIII22IIIII11IIIII111IIII111111IIIIAAAAAA
IIIIIIIIIIIIIIIIIIIIIIIIIII22IIIII11IIIII111I1II111111IIIIAAAAAA
IIIIIIIIIIIIIIIIIIIIIIII2II22II1II11II1II111I1II111111IIIIAAAAAA
IIIIIIIIIIIIIIIIIIIIIII22II22I11II11I11II11111I1111111IIIAAAAAAA
IIIIIIIIIIIIIIIIIIIIII222II22111II11111II1111111111111IIAAAAAAAA
IIIIIIIIIIIIIIIIIIIIII222II21111II11111II1111111111111IAAAAAAAAA
IIIIIIIIIIIIIIIIIIIII2222II21111II11111II1111111111111IAAAAAAAAA
IIIIIIIIIIIIIIIIIIII22222II11111II11111II1111111111111AAAAAAAAAA
IIIIIIIIIIIIIIIIIII222222I111111I111111I1111111111111AAAAAAAAAAA
IIIIIIIIIIIIIIIIII2222222111111111111111111111111111AAAAAAAAAAAA
IIIIIIIIIIIIIIIII2222222111111111111111111111111111AAAAAAAAAAAAA
IIIIIIIIIIIIIIII2222222111111111111111111111111111AAAAAAAAAAAAAA
IIIIIIIIIIIIIII2222222111111111111111111111111111AAAAAAAAAAAAAAA
IIIIIIIIIIIIII2222222111111111111111111111111111AAAAAAAAAAAAAAAA
IIIIIIIIIIIII2222222111111111111111111111111111AAAAAAAAAAAAAAAAA
IIIIIIIIIIII2222222111111111111111111111111111AAAAAAAAAAAAAAAAAA
IIIIIIIIIII2222222111111111111111111111111111AAAAAAAAAAAAAAAAAAA
IIIIIIIIII2222222111111111111111111111111111AAAAAAAAAAAAAAAAAAAA
IIIIIIIIII222222111111111111111111111111111AAAAAAAAAAAAAAAAAAAAA
IIIIIIIII2222222111111111111111111111111111AAAAAAAAAAAAAAAAAAAAA
IIIIIIII2222222111111111111111111111111111AAAAAAAAAAAAAAAAAAAAAA
IIIIIII2222222111111111111111111111111111AAAAAAAAAAAAAAAAAAAAAAA
IIIIII2222222111111111111111111111111111AAAAAAAAAAAAAAAAAAAAAAAA
IIIII2222222111111111111111111111111111AAAAAAAAAAAAAAAAAAAAAAAAA
IIII2222222111111111111111111111111111AAAAAAAAAAAAAAAAAAAAAAAAAA
III2222222111111111111111111111111111AAAAAAAAAAAAAAAAAAAAAAAAAAA
III222222111111111111111111111111111AAAAAAAAAAAAAAAAAAAAAAAAAAAA
II2222222111111111111111111111111111AAAAAAAAAAAAAAAAAAAAAAAAAAAA
I2222222111111111111111111111111111AAAAAAAAAAAAAAAAAAAAAAAAAAAAA
2222222111111111111111111111111111AAAAAAAAAAAAAAAAAAAAAAAAAAAAAA
222222111111111111111111111111111AAAAAAAAAAAAAAAAAAAAAAAAAAAAAAA
22222111111111111111111111111111AAAAAAAAAAAAAAAAAAAAAAAAAAAAAAAA
2222111111111111111111111111111AAAAAAAAAAAAAAAAAAAAAAAAAAAAAAAAA
222111111111111111111111111111AAAAAAAAAAAAAAAAAAAAAAAAAAAAAAAAAA
22111111111111111111111111111AAAAAAAAAAAAAAAAAAAAAAAAAAAAAAAAAAA
2111111111111111111111111111AAAAAAAAAAAAAAAAAAAAAAAAAAAAAAAAAAAA
111111111111111111111111111AAAAAAAAAAAAAAAAAAAAAAAAAAAAAAAAAAAAA
11111111111111111111111111AAAAAAAAAAAAAAAAAAAAAAAAAAAAAAAAAAAAAA
1111111111111111111111111AAAAAAAAAAAAAAAAAAAAAAAAAAAAAAAAAAAAAAA
111111111111111111111111AAAAAAAAAAAAAAAAAAAAAAAAAAAAAAAAAAAAAAAA
11111111111111111111111AAAAAAAAAAAAAAAAAAAAAAAAAAAAAAAAAAAAAAAAA
1111111111111111111111AAAAAAAAAAAAAAAAAAAAAAAAAAAAAAAAAAAAAAAAAA
111111111111111111111AAAAAAAAAAAAAAAAAAAAAAAAAAAAAAAAAAAAAAAAAAA
11111111111111111111AAAAAAAAAAAAAAAAAAAAAAAAAAAAAAAAAAAAAAAAAAAA
1111111111111111111AAAAAAAAAAAAAAAAAAAAAAAAAAAAAAAAAAAAAAAAAAAAA
111111111111111111AAAAAAAAAAAAAAAAAAAAAAAAAAAAAAAAAAAAAAAAAAAAAA
11111111111111111AAAAAAAAAAAAAAAAAAAAAAAAAAAAAAAAAAAAAAAAAAAAAAA
1111111111111111AAAAAAAAAAAAAAAAAAAAAAAAAAAAAAAAAAAAAAAAAAAAAAAA
111111111111111AAAAAAAAAAAAAAAAAAAAAAAAAAAAAAAAAAAAAAAAAAAAAAAAA
11111111111111AAAAAAAAAAAAAAAAAAAAAAAAAAAAAAAAAAAAAAAAAAAAAAAAAA
1111111111111AAAAAAAAAAAAAAAAAAAAAAAAAAAAAAAAAAAAAAAAAAAAAAAAAAA
111111111111AAAAAAAAAAAAAAAAAAAAAAAAAAAAAAAAAAAAAAAAAAAAAAAAAAAA
11111111111AAAAAAAAAAAAAAAAAAAAAAAAAAAAAAAAAAAAAAAAAAAAAAAAAAAAA
1111111111AAAAAAAAAAAAAAAAAAAAAAAAAAAAAAAAAAAAAAAAAAAAAAAAAAAAAA
111111111AAAAAAAAAAAAAAAAAAAAAAAAAAAAAAAAAAAAAAAAAAAAAAAAAAAAAAA
11111111AAAAAAAAAAAAAAAAAAAAAAAAAAAAAAAAAAAAAAAAAAAAAAAAAAAAAAAA
1111111AAAAAAAAAAAAAAAAAAAAAAAAAAAAAAAAAAAAAAAAAAAAAAAAAAAAAAAAA
111111AAAAAAAAAAAAAAAAAAAAAAAAAAAAAAAAAAAAAAAAAAAAAAAAAAAAAAAAAA
11111AAAAAAAAAAAAAAAAAAAAAAAAAAAAAAAAAAAAAAAAAAAAAAAAAAAAAAAAAAA
1111AAAAAAAAAAAAAAAAAAAAAAAAAAAAAAAAAAAAAAAAAAAAAAAAAAAAAAAAAAAA
111AAAAAAAAAAAAAAAAAAAAAAAAAAAAAAAAAAAAAAAAAAAAAAAAAAAAAAAAAAAAA
11AAAAAAAAAAAAAAAAAAAAAAAAAAAAAAAAAAAAAAAAAAAAAAAAAAAAAAAAAAAAAA
1AAAAAAAAAAAAAAAAAAAAAAAAAAAAAAAAAAAAAAAAAAAAAAAAAAAAAAAAAAAAAAA
AAAAAAAAAAAAAAAAAAAAAAAAAAAAAAAAAAAAAAAAAAAAAAAAAAAAAAAAAAAAAAAA
IIIIIIIIIIIIIIIIIIIIIIIIIIIIIIIIIIIIIIIIIIIIIIIIIIIIIIII2III1IIA
IIIIIIIIIIIIIIIIIIIIIIIIIIIIIIIIIIIIIIIIIIIIIIIIIIIIIII22II11IAA
IIIIIIIIIIIIIIIIIIIIIIIIIIIIIIIIIIIIIIIIIIIIIIIIIIIIII222I111AAA
IIIIIIIIIIIIIIIIIIIIIIIIIIIIIIIIIIIIIIIIIIIIIIIIIIIII2222111AAAA
IIIIIIIIIIIIIIIIIIIIIIIIIIIIIIIIIIIIIIIIIIIIIIIIIIII2222111AAAAA
IIIIIIIIIIIIIIIIIIIIIIIIIIIIIIIIIIIIIIIIIIIIIIIIIII2222111AAAAAA
IIIIIIIIIIIIIIIIIIIIIIIIIIIIIIIIIIIIIIIIIIIIIIIIII2222111AAAAAAA
IIIIIIIIIIIIIIIIIIIIIIIIIIIIIIIIIIIIIIIIIIIIIIIII2222111AAAAAAAA
IIIIIIIIIIIIIIIIIIIIIIIIIIIIIIIIIIIIIIIIIIIIIIII2222111AAAAAAAAA
IIIIIIIIIIIIIIIIIIIIIIIIIIIIIIIIIIIIIIIIIIIIIII2222111AAAAAAAAAA
IIIIIIIIIIIIIIIIIIIIIIIIIIIIIIIIIIIIIIIIIIIIII2222111AAAAAAAAAAA
IIIIIIIIIIIIIIIIIIIIIIIIIIIIIIIIIIIIIIIIIIIII2222111AAAAAAAAAAAA
IIIIIIIIIIIIIIIIIIIIIIIIIIIIIIIIIIIIIIIIIIII2222111AAAAAAAAAAAAA
IIIIIIIIIIIIIIIIIIIIIIIIIIIIIIIIIIIIIIIIIII2222111AAAAAAAAAAAAAA
IIIIIIIIIIIIIIIIIIIIIIIIIIIIIIIIIIIIIIIIII2222111AAAAAAAAAAAAAAA
IIIIIIIIIIIIIIIIIIIIIIIIIIIIIIIIIIIIIIIII2222111AAAAAAAAAAAAAAAA
IIIIIIIIIIIIIIIIIIIIIIIIIIIIIIIIIIIIIIII2222111AAAAAAAAAAAAAAAAA
IIIIIIIIIIIIIIIIIIIIIIIIIIIIIIIIIIIIIII2222111AAAAAAAAAAAAAAAAAA
IIIIIIIIIIIIIIIIIIIIIIIIIIIIIIIIIIIIII2222111AAAAAAAAAAAAAAAAAAA
IIIIIIIIIIIIIIIIIIIIIIIIIIIIIIIIIIIII2222111AAAAAAAAAAAAAAAAAAAA
IIIIIIIIIIIIIIIIIIIIIIIIIIIIIIIIIIII2222111AAAAAAAAAAAAAAAAAAAAA
IIIIIIIIIIIIIIIIIIIIIIIIIIIIIIIIIII2222111AAAAAAAAAAAAAAAAAAAAAA
IIIIIIIIIIIIIIIIIIIIIIIIIIIIIIIIII2222111AAAAAAAAAAAAAAAAAAAAAAA
IIIIIIIIIIIIIIIIIIIIIIIIIIIIIIIII2222111AAAAAAAAAAAAAAAAAAAAAAAA
IIIIIIIIIIIIIIIIIIIIIIIIIIIIIIII2222111AAAAAAAAAAAAAAAAAAAAAAAAA
IIIIIIIIIIIIIIIIIIIIIIIIIIIIIII2222111AAAAAAAAAAAAAAAAAAAAAAAAAA
IIIIIIIIIIIIIIIIIIIIIIIIIIIIII2222111AAAAAAAAAAAAAAAAAAAAAAAAAAA
[...]
IIIIIIIIIIIIIIIIIIIIIIIIIIIIIIII222111AAAAAAAAAAAAAAAAAAAAAAAAAA
IIIIIIIIIIIIIIIIIIIIIIIIIIIIIII222111AAAAAAAAAAAAAAAAAAAAAAAAAAA
IIIIIIIIIIIIIIIIIIIIIIIIIIIIII222111AAAAAAAAAAAAAAAAAAAAAAAAAAAA
IIIIIIIIIIIIIIIIIIIIIIIIIIIII222111AAAAAAAAAAAAAAAAAAAAAAAAAAAAA
IIIIIIIIIIIIIIIIIIIIIIIIIIII222111AAAAAAAAAAAAAAAAAAAAAAAAAAAAAA
IIIIIIIIIIIIIIIIIIIIIIIIIII222111AAAAAAAAAAAAAAAAAAAAAAAAAAAAAAA
IIIIIIIIIIIIIIIIIIIIIIIIII222111AAAAAAAAAAAAAAAAAAAAAAAAAAAAAAAA
IIIIIIIIIIIIIIIIIIIIIIIII222111AAAAAAAAAAAAAAAAAAAAAAAAAAAAAAAAA
IIIIIIIIIIIIIIIIIIIIIIII222111AAAAAAAAAAAAAAAAAAAAAAAAAAAAAAAAAA
IIIIIIIIIIIIIIIIIIIIIII222111AAAAAAAAAAAAAAAAAAAAAAAAAAAAAAAAAAA
IIIIIIIIIIIIIIIIIIIIII222111AAAAAAAAAAAAAAAAAAAAAAAAAAAAAAAAAAAA
IIIIIIIIIIIIIIIIIIIII222111AAAAAAAAAAAAAAAAAAAAAAAAAAAAAAAAAAAAA
IIIIIIIIIIIIIIIIIIIII22211AAAAAAAAAAAAAAAAAAAAAAAAAAAAAAAAAAAAAA
IIIIIIIIIIIIIIIIIIII222111AAAAAAAAAAAAAAAAAAAAAAAAAAAAAAAAAAAAAA
IIIIIIIIIIIIIIIIIII222111AAAAAAAAAAAAAAAAAAAAAAAAAAAAAAAAAAAAAAA
IIIIIIIIIIIIIIIIII222111AAAAAAAAAAAAAAAAAAAAAAAAAAAAAAAAAAAAAAAA
IIIIIIIIIIIIIIIII222111AAAAAAAAAAAAAAAAAAAAAAAAAAAAAAAAAAAAAAAAA
IIIIIIIIIIIIIIII222111AAAAAAAAAAAAAAAAAAAAAAAAAAAAAAAAAAAAAAAAAA
IIIIIIIIIIIIIII222111AAAAAAAAAAAAAAAAAAAAAAAAAAAAAAAAAAAAAAAAAAA
IIIIIIIIIIIIII222111AAAAAAAAAAAAAAAAAAAAAAAAAAAAAAAAAAAAAAAAAAAA
IIIIIIIIIIIII222111AAAAAAAAAAAAAAAAAAAAAAAAAAAAAAAAAAAAAAAAAAAAA
IIIIIIIIIIII222111AAAAAAAAAAAAAAAAAAAAAAAAAAAAAAAAAAAAAAAAAAAAAA
IIIIIIIIIII222111AAAAAAAAAAAAAAAAAAAAAAAAAAAAAAAAAAAAAAAAAAAAAAA
IIIIIIIIII222111AAAAAAAAAAAAAAAAAAAAAAAAAAAAAAAAAAAAAAAAAAAAAAAA
IIIIIIIII222111AAAAAAAAAAAAAAAAAAAAAAAAAAAAAAAAAAAAAAAAAAAAAAAAA
IIIIIIII222111AAAAAAAAAAAAAAAAAAAAAAAAAAAAAAAAAAAAAAAAAAAAAAAAAA
IIIIIII222111AAAAAAAAAAAAAAAAAAAAAAAAAAAAAAAAAAAAAAAAAAAAAAAAAAA
IIIIII222111AAAAAAAAAAAAAAAAAAAAAAAAAAAAAAAAAAAAAAAAAAAAAAAAAAAA
IIIII222111AAAAAAAAAAAAAAAAAAAAAAAAAAAAAAAAAAAAAAAAAAAAAAAAAAAAA
IIII222111AAAAAAAAAAAAAAAAAAAAAAAAAAAAAAAAAAAAAAAAAAAAAAAAAAAAAA
III222111AAAAAAAAAAAAAAAAAAAAAAAAAAAAAAAAAAAAAAAAAAAAAAAAAAAAAAA
II222111AAAAAAAAAAAAAAAAAAAAAAAAAAAAAAAAAAAAAAAAAAAAAAAAAAAAAAAA
I222111AAAAAAAAAAAAAAAAAAAAAAAAAAAAAAAAAAAAAAAAAAAAAAAAAAAAAAAAA
222111AAAAAAAAAAAAAAAAAAAAAAAAAAAAAAAAAAAAAAAAAAAAAAAAAAAAAAAAAA
22111AAAAAAAAAAAAAAAAAAAAAAAAAAAAAAAAAAAAAAAAAAAAAAAAAAAAAAAAAAA
2111AAAAAAAAAAAAAAAAAAAAAAAAAAAAAAAAAAAAAAAAAAAAAAAAAAAAAAAAAAAA
111AAAAAAAAAAAAAAAAAAAAAAAAAAAAAAAAAAAAAAAAAAAAAAAAAAAAAAAAAAAAA
11AAAAAAAAAAAAAAAAAAAAAAAAAAAAAAAAAAAAAAAAAAAAAAAAAAAAAAAAAAAAAA
1AAAAAAAAAAAAAAAAAAAAAAAAAAAAAAAAAAAAAAAAAAAAAAAAAAAAAAAAAAAAAAA
AAAAAAAAAAAAAAAAAAAAAAAAAAAAAAAAAAAAAAAAAAAAAAAAAAAAAAAAAAAAAAAA
IIIIIIIIIIIIIIIIIIIIIIIIIIIIIIIIIIIIIIIIIIIIIIIIIIIIIIIIIIIIIIIA
IIIIIIIIIIIIIIIIIIIIIIIIIIIII2IIIIII2IIIIII1II1IIIIII1IIIIIIIIIA
IIIIIIIIIIIIIIIIIIIIIIIIIIII22IIIII22IIIII11I11IIIII11IIIIIIIIAA
IIIIIIIIIIIIIIIIIIIIIIIIIII222IIII222IIII111111IIII111IIIIIIIAAA
IIIIIIIIIIIIIIIIIIIIIIIIIII222IIII222IIII111111III1111IIIIIIAAAA
IIIIIIIIIIIIIIIIIIIIIIIIII2222III2222III1111111III1111IIIIIIAAAA
IIIIIIIIIIIIIIIIIIIIIIIIII2222III2222III1111111III1111IIIIIAAAAA
IIIIIIIIIIIIIIIIIIIIIIIII22222II22222II11111111II11111IIIIIAAAAA
IIIIIIIIIIIIIIIIIIIIIIIII22222II22222II11111111II11111IIIIAAAAAA
IIIIIIIIIIIIIIIIIIIIIIII222222I222222I111111111I111111IIIIAAAAAA
IIIIIIIIIIIIIIIIIIIIIII2222222222222211111111111111111IIIAAAAAAA
IIIIIIIIIIIIIIIIIIIIII22222222222222111111111111111111IIAAAAAAAA
IIIIIIIIIIIIIIIIIIIII222222222222221111111111111111111IAAAAAAAAA
IIIIIIIIIIIIIIIIIIII2222222222222211111111111111111111AAAAAAAAAA
IIIIIIIIIIIIIIIIIII2222222222222211111111111111111111AAAAAAAAAAA
IIIIIIIIIIIIIIIIII2222222222222211111111111111111111AAAAAAAAAAAA
IIIIIIIIIIIIIIIII2222222222222211111111111111111111AAAAAAAAAAAAA
IIIIIIIIIIIIIIIII222222222222211111111111111111111AAAAAAAAAAAAAA
IIIIIIIIIIIIIIII2222222222222211111111111111111111AAAAAAAAAAAAAA
IIIIIIIIIIIIIIII222222222222211111111111111111111AAAAAAAAAAAAAAA
IIIIIIIIIIIIIII2222222222222211111111111111111111AAAAAAAAAAAAAAA
IIIIIIIIIIIIII2222222222222211111111111111111111AAAAAAAAAAAAAAAA
IIIIIIIIIIIII2222222222222211111111111111111111AAAAAAAAAAAAAAAAA
IIIIIIIIIIII2222222222222211111111111111111111AAAAAAAAAAAAAAAAAA
IIIIIIIIIII2222222222222211111111111111111111AAAAAAAAAAAAAAAAAAA
IIIIIIIIIII222222222222221111111111111111111AAAAAAAAAAAAAAAAAAAA
IIIIIIIIIII22222222222222111111111111111111AAAAAAAAAAAAAAAAAAAAA
IIIIIIIII2I22222222222212111111111111111111AAAAAAAAAAAAAAAAAAAAA
IIIIIIII22I2222222222211211111111111111111AAAAAAAAAAAAAAAAAAAAAA
IIIIIII222I222222222211111111111111111111AAAAAAAAAAAAAAAAAAAAAAA
IIIIII2222I22222222211111111111111111111AAAAAAAAAAAAAAAAAAAAAAAA
IIIII22222I2222222211111111111111111111AAAAAAAAAAAAAAAAAAAAAAAAA
IIII222222I222222211111111111111111111AAAAAAAAAAAAAAAAAAAAAAAAAA
III2222222222222211111111111111111111AAAAAAAAAAAAAAAAAAAAAAAAAAA
III222222222222211111111111111111111AAAAAAAAAAAAAAAAAAAAAAAAAAAA
II2222222222222211111111111111111111AAAAAAAAAAAAAAAAAAAAAAAAAAAA
I2222222222222211111111111111111111AAAAAAAAAAAAAAAAAAAAAAAAAAAAA
2222222222222211111111111111111111AAAAAAAAAAAAAAAAAAAAAAAAAAAAAA
222222222222211111111111111111111AAAAAAAAAAAAAAAAAAAAAAAAAAAAAAA
22222222222211111111111111111111AAAAAAAAAAAAAAAAAAAAAAAAAAAAAAAA
2222222222221111111111111111111AAAAAAAAAAAAAAAAAAAAAAAAAAAAAAAAA
2222222222211111111111111111111AAAAAAAAAAAAAAAAAAAAAAAAAAAAAAAAA
222222222211111111111111111111AAAAAAAAAAAAAAAAAAAAAAAAAAAAAAAAAA
22222222211111111111111111111AAAAAAAAAAAAAAAAAAAAAAAAAAAAAAAAAAA
2222222211111111111111111111AAAAAAAAAAAAAAAAAAAAAAAAAAAAAAAAAAAA
222222211111111111111111111AAAAAAAAAAAAAAAAAAAAAAAAAAAAAAAAAAAAA
22222211111111111111111111AAAAAAAAAAAAAAAAAAAAAAAAAAAAAAAAAAAAAA
2222211111111111111111111AAAAAAAAAAAAAAAAAAAAAAAAAAAAAAAAAAAAAAA
222221111111111111111111AAAAAAAAAAAAAAAAAAAAAAAAAAAAAAAAAAAAAAAA
222211111111111111111111AAAAAAAAAAAAAAAAAAAAAAAAAAAAAAAAAAAAAAAA
22211111111111111111111AAAAAAAAAAAAAAAAAAAAAAAAAAAAAAAAAAAAAAAAA
2211111111111111111111AAAAAAAAAAAAAAAAAAAAAAAAAAAAAAAAAAAAAAAAAA
211111111111111111111AAAAAAAAAAAAAAAAAAAAAAAAAAAAAAAAAAAAAAAAAAA
21111111111111111111AAAAAAAAAAAAAAAAAAAAAAAAAAAAAAAAAAAAAAAAAAAA
11111111111111111111AAAAAAAAAAAAAAAAAAAAAAAAAAAAAAAAAAAAAAAAAAAA
1111111111111111111AAAAAAAAAAAAAAAAAAAAAAAAAAAAAAAAAAAAAAAAAAAAA
111111111111111111AAAAAAAAAAAAAAAAAAAAAAAAAAAAAAAAAAAAAAAAAAAAAA
11111111111111111AAAAAAAAAAAAAAAAAAAAAAAAAAAAAAAAAAAAAAAAAAAAAAA
1111111111111111AAAAAAAAAAAAAAAAAAAAAAAAAAAAAAAAAAAAAAAAAAAAAAAA
111111111111111AAAAAAAAAAAAAAAAAAAAAAAAAAAAAAAAAAAAAAAAAAAAAAAAA
11111111111111AAAAAAAAAAAAAAAAAAAAAAAAAAAAAAAAAAAAAAAAAAAAAAAAAA
1111111111111AAAAAAAAAAAAAAAAAAAAAAAAAAAAAAAAAAAAAAAAAAAAAAAAAAA
111111111111AAAAAAAAAAAAAAAAAAAAAAAAAAAAAAAAAAAAAAAAAAAAAAAAAAAA
11111111111AAAAAAAAAAAAAAAAAAAAAAAAAAAAAAAAAAAAAAAAAAAAAAAAAAAAA
1111111111AAAAAAAAAAAAAAAAAAAAAAAAAAAAAAAAAAAAAAAAAAAAAAAAAAAAAA
111111111AAAAAAAAAAAAAAAAAAAAAAAAAAAAAAAAAAAAAAAAAAAAAAAAAAAAAAA
11111111AAAAAAAAAAAAAAAAAAAAAAAAAAAAAAAAAAAAAAAAAAAAAAAAAAAAAAAA
1111111AAAAAAAAAAAAAAAAAAAAAAAAAAAAAAAAAAAAAAAAAAAAAAAAAAAAAAAAA
111111AAAAAAAAAAAAAAAAAAAAAAAAAAAAAAAAAAAAAAAAAAAAAAAAAAAAAAAAAA
11111AAAAAAAAAAAAAAAAAAAAAAAAAAAAAAAAAAAAAAAAAAAAAAAAAAAAAAAAAAA
1111AAAAAAAAAAAAAAAAAAAAAAAAAAAAAAAAAAAAAAAAAAAAAAAAAAAAAAAAAAAA
111AAAAAAAAAAAAAAAAAAAAAAAAAAAAAAAAAAAAAAAAAAAAAAAAAAAAAAAAAAAAA
11AAAAAAAAAAAAAAAAAAAAAAAAAAAAAAAAAAAAAAAAAAAAAAAAAAAAAAAAAAAAAA
1AAAAAAAAAAAAAAAAAAAAAAAAAAAAAAAAAAAAAAAAAAAAAAAAAAAAAAAAAAAAAAA
AAAAAAAAAAAAAAAAAAAAAAAAAAAAAAAAAAAAAAAAAAAAAAAAAAAAAAAAAAAAAAAA
IIIIIIIIIIIIIIIIIIIIIIIIIIIIIIIII2II2IIIIII1II1IIIIII1IIIIIIIIIA
IIIIIIIIIIIIIIIIIIIIIIIIIIIIIIII22I22IIIII11I11IIIII11IIIIIIIIAA
IIIIIIIIIIIIIIIIIIIIIIIIIIIIIII222222IIII111111IIII111IIIIIIIAAA
IIIIIIIIIIIIIIIIIIIIIIIIIIIIII2222222III1111111III1111IIIIIIAAAA
IIIIIIIIIIIIIIIIIIIIIIIIIIIIII2222222III1111111II11111IIIIIAAAAA
IIIIIIIIIIIIIIIIIIIIIIIIIIIII22222222II11111111II11111IIIIIAAAAA
IIIIIIIIIIIIIIIIIIIIIIIIIIIII22222222II11111111II11111IIIIAAAAAA
IIIIIIIIIIIIIIIIIIIIIIIIIIII222222222I111111111I111111IIIIAAAAAA
IIIIIIIIIIIIIIIIIIIIIIIIIII222222222211111111111111111IIIAAAAAAA
IIIIIIIIIIIIIIIIIIIIIIIIII2222222222111111111111111111IIAAAAAAAA
IIIIIIIIIIIIIIIIIIIIIIIII22222222221111111111111111111IAAAAAAAAA
IIIIIIIIIIIIIIIIIIIIIIII222222222211111111111111111111AAAAAAAAAA
IIIIIIIIIIIIIIIIIIIIIII222222222211111111111111111111AAAAAAAAAAA
IIIIIIIIIIIIIIIIIIIIII222222222211111111111111111111AAAAAAAAAAAA
IIIIIIIIIIIIIIIIIIIII222222222211111111111111111111AAAAAAAAAAAAA
IIIIIIIIIIIIIIIIIIII222222222211111111111111111111AAAAAAAAAAAAAA
IIIIIIIIIIIIIIIIIII222222222211111111111111111111AAAAAAAAAAAAAAA
IIIIIIIIIIIIIIIIII222222222211111111111111111111AAAAAAAAAAAAAAAA
IIIIIIIIIIIIIIIII222222222211111111111111111111AAAAAAAAAAAAAAAAA
IIIIIIIIIIIIIIII222222222211111111111111111111AAAAAAAAAAAAAAAAAA
IIIIIIIIIIIIIII222222222211111111111111111111AAAAAAAAAAAAAAAAAAA
IIIIIIIIIIIIIII22222222221111111111111111111AAAAAAAAAAAAAAAAAAAA
IIIIIIIIIIIIIII2222222222111111111111111111AAAAAAAAAAAAAAAAAAAAA
IIIIIIIIIIIII2I2222222212111111111111111111AAAAAAAAAAAAAAAAAAAAA
IIIIIIIIIIII22I222222211211111111111111111AAAAAAAAAAAAAAAAAAAAAA
IIIIIIIIIII222222222211111111111111111111AAAAAAAAAAAAAAAAAAAAAAA
IIIIIIIIIII22222222221111111111111111111AAAAAAAAAAAAAAAAAAAAAAAA
IIIIIIIIII222222222211111111111111111111AAAAAAAAAAAAAAAAAAAAAAAA
IIIIIIIII222222222211111111111111111111AAAAAAAAAAAAAAAAAAAAAAAAA
IIIIIIIII22222222221111111111111111111AAAAAAAAAAAAAAAAAAAAAAAAAA
IIIIIIII222222222211111111111111111111AAAAAAAAAAAAAAAAAAAAAAAAAA
IIIIIII222222222211111111111111111111AAAAAAAAAAAAAAAAAAAAAAAAAAA
IIIIIII22222222221111111111111111111AAAAAAAAAAAAAAAAAAAAAAAAAAAA
IIIIII222222222211111111111111111111AAAAAAAAAAAAAAAAAAAAAAAAAAAA
IIIII222222222211111111111111111111AAAAAAAAAAAAAAAAAAAAAAAAAAAAA
IIIII22222222221111111111111111111AAAAAAAAAAAAAAAAAAAAAAAAAAAAAA
IIIII2222222222111111111111111111AAAAAAAAAAAAAAAAAAAAAAAAAAAAAAA
III2I2222222212111111111111111111AAAAAAAAAAAAAAAAAAAAAAAAAAAAAAA
II22I222222211211111111111111111AAAAAAAAAAAAAAAAAAAAAAAAAAAAAAAA
I222222222211111111111111111111AAAAAAAAAAAAAAAAAAAAAAAAAAAAAAAAA
222222222211111111111111111111AAAAAAAAAAAAAAAAAAAAAAAAAAAAAAAAAA
22222222211111111111111111111AAAAAAAAAAAAAAAAAAAAAAAAAAAAAAAAAAA
2222222211111111111111111111AAAAAAAAAAAAAAAAAAAAAAAAAAAAAAAAAAAA
222222211111111111111111111AAAAAAAAAAAAAAAAAAAAAAAAAAAAAAAAAAAAA
22222211111111111111111111AAAAAAAAAAAAAAAAAAAAAAAAAAAAAAAAAAAAAA
2222211111111111111111111AAAAAAAAAAAAAAAAAAAAAAAAAAAAAAAAAAAAAAA
222221111111111111111111AAAAAAAAAAAAAAAAAAAAAAAAAAAAAAAAAAAAAAAA
222211111111111111111111AAAAAAAAAAAAAAAAAAAAAAAAAAAAAAAAAAAAAAAA
22211111111111111111111AAAAAAAAAAAAAAAAAAAAAAAAAAAAAAAAAAAAAAAAA
2211111111111111111111AAAAAAAAAAAAAAAAAAAAAAAAAAAAAAAAAAAAAAAAAA
211111111111111111111AAAAAAAAAAAAAAAAAAAAAAAAAAAAAAAAAAAAAAAAAAA
11111111111111111111AAAAAAAAAAAAAAAAAAAAAAAAAAAAAAAAAAAAAAAAAAAA
1111111111111111111AAAAAAAAAAAAAAAAAAAAAAAAAAAAAAAAAAAAAAAAAAAAA
111111111111111111AAAAAAAAAAAAAAAAAAAAAAAAAAAAAAAAAAAAAAAAAAAAAA
11111111111111111AAAAAAAAAAAAAAAAAAAAAAAAAAAAAAAAAAAAAAAAAAAAAAA
1111111111111111AAAAAAAAAAAAAAAAAAAAAAAAAAAAAAAAAAAAAAAAAAAAAAAA
111111111111111AAAAAAAAAAAAAAAAAAAAAAAAAAAAAAAAAAAAAAAAAAAAAAAAA
11111111111111AAAAAAAAAAAAAAAAAAAAAAAAAAAAAAAAAAAAAAAAAAAAAAAAAA
1111111111111AAAAAAAAAAAAAAAAAAAAAAAAAAAAAAAAAAAAAAAAAAAAAAAAAAA
111111111111AAAAAAAAAAAAAAAAAAAAAAAAAAAAAAAAAAAAAAAAAAAAAAAAAAAA
11111111111AAAAAAAAAAAAAAAAAAAAAAAAAAAAAAAAAAAAAAAAAAAAAAAAAAAAA
1111111111AAAAAAAAAAAAAAAAAAAAAAAAAAAAAAAAAAAAAAAAAAAAAAAAAAAAAA
111111111AAAAAAAAAAAAAAAAAAAAAAAAAAAAAAAAAAAAAAAAAAAAAAAAAAAAAAA
11111111AAAAAAAAAAAAAAAAAAAAAAAAAAAAAAAAAAAAAAAAAAAAAAAAAAAAAAAA
1111111AAAAAAAAAAAAAAAAAAAAAAAAAAAAAAAAAAAAAAAAAAAAAAAAAAAAAAAAA
111111AAAAAAAAAAAAAAAAAAAAAAAAAAAAAAAAAAAAAAAAAAAAAAAAAAAAAAAAAA
11111AAAAAAAAAAAAAAAAAAAAAAAAAAAAAAAAAAAAAAAAAAAAAAAAAAAAAAAAAAA
1111AAAAAAAAAAAAAAAAAAAAAAAAAAAAAAAAAAAAAAAAAAAAAAAAAAAAAAAAAAAA
111AAAAAAAAAAAAAAAAAAAAAAAAAAAAAAAAAAAAAAAAAAAAAAAAAAAAAAAAAAAAA
11AAAAAAAAAAAAAAAAAAAAAAAAAAAAAAAAAAAAAAAAAAAAAAAAAAAAAAAAAAAAAA
1AAAAAAAAAAAAAAAAAAAAAAAAAAAAAAAAAAAAAAAAAAAAAAAAAAAAAAAAAAAAAAA
AAAAAAAAAAAAAAAAAAAAAAAAAAAAAAAAAAAAAAAAAAAAAAAAAAAAAAAAAAAAAAAA
IIIIIIIIIIIIIIIIIIIIIIIIIIIIIIIIIIIIIIIIIIIIIIIIIIIIIIIII2II1IIA
IIIIIIIIIIIIIIIIIIIIIIIIIIIIIIIIIIIIIIIIIIIIIIIIIIIIIIII22I11IAA
IIIIIIIIIIIIIIIIIIIIIIIIIIIIIIIIIIIIIIIIIIIIIIIIIIIIIII222111AAA
IIIIIIIIIIIIIIIIIIIIIIIIIIIIIIIIIIIIIIIIIIIIIIIIIIIIII222111AAAA
IIIIIIIIIIIIIIIIIIIIIIIIIIIIIIIIIIIIIIIIIIIIIIIIIIIII222111AAAAA
IIIIIIIIIIIIIIIIIIIIIIIIIIIIIIIIIIIIIIIIIIIIIIIIIIII222111AAAAAA
IIIIIIIIIIIIIIIIIIIIIIIIIIIIIIIIIIIIIIIIIIIIIIIIIII222111AAAAAAA
IIIIIIIIIIIIIIIIIIIIIIIIIIIIIIIIIIIIIIIIIIIIIIIIII222111AAAAAAAA
IIIIIIIIIIIIIIIIIIIIIIIIIIIIIIIIIIIIIIIIIIIIIIIII222111AAAAAAAAA
IIIIIIIIIIIIIIIIIIIIIIIIIIIIIIIIIIIIIIIIIIIIIIII222111AAAAAAAAAA
IIIIIIIIIIIIIIIIIIIIIIIIIIIIIIIIIIIIIIIIIIIIIII222111AAAAAAAAAAA
IIIIIIIIIIIIIIIIIIIIIIIIIIIIIIIIIIIIIIIIIIIIII222111AAAAAAAAAAAA
IIIIIIIIIIIIIIIIIIIIIIIIIIIIIIIIIIIIIIIIIIIII222111AAAAAAAAAAAAA
IIIIIIIIIIIIIIIIIIIIIIIIIIIIIIIIIIIIIIIIIIII222111AAAAAAAAAAAAAA
IIIIIIIIIIIIIIIIIIIIIIIIIIIIIIIIIIIIIIIIIII222111AAAAAAAAAAAAAAA
IIIIIIIIIIIIIIIIIIIIIIIIIIIIIIIIIIIIIIIIII222111AAAAAAAAAAAAAAAA
IIIIIIIIIIIIIIIIIIIIIIIIIIIIIIIIIIIIIIIII222111AAAAAAAAAAAAAAAAA
IIIIIIIIIIIIIIIIIIIIIIIIIIIIIIIIIIIIIIII222111AAAAAAAAAAAAAAAAAA
IIIIIIIIIIIIIIIIIIIIIIIIIIIIIIIIIIIIIII222111AAAAAAAAAAAAAAAAAAA
IIIIIIIIIIIIIIIIIIIIIIIIIIIIIIIIIIIIII222111AAAAAAAAAAAAAAAAAAAA
IIIIIIIIIIIIIIIIIIIIIIIIIIIIIIIIIIIII222111AAAAAAAAAAAAAAAAAAAAA
IIIIIIIIIIIIIIIIIIIIIIIIIIIIIIIIIIII222111AAAAAAAAAAAAAAAAAAAAAA
IIIIIIIIIIIIIIIIIIIIIIIIIIIIIIIIIII222111AAAAAAAAAAAAAAAAAAAAAAA
IIIIIIIIIIIIIIIIIIIIIIIIIIIIIIIIII222111AAAAAAAAAAAAAAAAAAAAAAAA
IIIIIIIIIIIIIIIIIIIIIIIIIIIIIIIII222111AAAAAAAAAAAAAAAAAAAAAAAAA
IIIIIIIIIIIIIIIIIIIIIIIIIIIIIIII222111AAAAAAAAAAAAAAAAAAAAAAAAAA
IIIIIIIIIIIIIIIIIIIIIIIIIIIIIII222111AAAAAAAAAAAAAAAAAAAAAAAAAAA
IIIIIIIIIIIIIIIIIIIIIIIIIIIIII222111AAAAAAAAAAAAAAAAAAAAAAAAAAAA
IIIIIIIIIIIIIIIIIIIIIIIIIIIII222111AAAAAAAAAAAAAAAAAAAAAAAAAAAAA
IIIIIIIIIIIIIIIIIIIIIIIIIIII222111AAAAAAAAAAAAAAAAAAAAAAAAAAAAAA
IIIIIIIIIIIIIIIIIIIIIIIIIII222111AAAAAAAAAAAAAAAAAAAAAAAAAAAAAAA
IIIIIIIIIIIIIIIIIIIIIIIIII222111AAAAAAAAAAAAAAAAAAAAAAAAAAAAAAAA
IIIIIIIIIIIIIIIIIIIIIIIII222111AAAAAAAAAAAAAAAAAAAAAAAAAAAAAAAAA
IIIIIIIIIIIIIIIIIIIIIIII222111AAAAAAAAAAAAAAAAAAAAAAAAAAAAAAAAAA
IIIIIIIIIIIIIIIIIIIIIII222111AAAAAAAAAAAAAAAAAAAAAAAAAAAAAAAAAAA
IIIIIIIIIIIIIIIIIIIIII222111AAAAAAAAAAAAAAAAAAAAAAAAAAAAAAAAAAAA
IIIIIIIIIIIIIIIIIIIII222111AAAAAAAAAAAAAAAAAAAAAAAAAAAAAAAAAAAAA
IIIIIIIIIIIIIIIIIIII222111AAAAAAAAAAAAAAAAAAAAAAAAAAAAAAAAAAAAAA
IIIIIIIIIIIIIIIIIII222111AAAAAAAAAAAAAAAAAAAAAAAAAAAAAAAAAAAAAAA
IIIIIIIIIIIIIIIIII222111AAAAAAAAAAAAAAAAAAAAAAAAAAAAAAAAAAAAAAAA
IIIIIIIIIIIIIIIII222111AAAAAAAAAAAAAAAAAAAAAAAAAAAAAAAAAAAAAAAAA
IIIIIIIIIIIIIIII222111AAAAAAAAAAAAAAAAAAAAAAAAAAAAAAAAAAAAAAAAAA
IIIIIIIIIIIIIII222111AAAAAAAAAAAAAAAAAAAAAAAAAAAAAAAAAAAAAAAAAAA
IIIIIIIIIIIIII222111AAAAAAAAAAAAAAAAAAAAAAAAAAAAAAAAAAAAAAAAAAAA
IIIIIIIIIIIII222111AAAAAAAAAAAAAAAAAAAAAAAAAAAAAAAAAAAAAAAAAAAAA
IIIIIIIIIIII222111AAAAAAAAAAAAAAAAAAAAAAAAAAAAAAAAAAAAAAAAAAAAAA
IIIIIIIIIII222111AAAAAAAAAAAAAAAAAAAAAAAAAAAAAAAAAAAAAAAAAAAAAAA
IIIIIIIIII222111AAAAAAAAAAAAAAAAAAAAAAAAAAAAAAAAAAAAAAAAAAAAAAAA
IIIIIIIII222111AAAAAAAAAAAAAAAAAAAAAAAAAAAAAAAAAAAAAAAAAAAAAAAAA
IIIIIIII222111AAAAAAAAAAAAAAAAAAAAAAAAAAAAAAAAAAAAAAAAAAAAAAAAAA
IIIIIII222111AAAAAAAAAAAAAAAAAAAAAAAAAAAAAAAAAAAAAAAAAAAAAAAAAAA
IIIIII222111AAAAAAAAAAAAAAAAAAAAAAAAAAAAAAAAAAAAAAAAAAAAAAAAAAAA
IIIII222111AAAAAAAAAAAAAAAAAAAAAAAAAAAAAAAAAAAAAAAAAAAAAAAAAAAAA
IIII222111AAAAAAAAAAAAAAAAAAAAAAAAAAAAAAAAAAAAAAAAAAAAAAAAAAAAAA
III222111AAAAAAAAAAAAAAAAAAAAAAAAAAAAAAAAAAAAAAAAAAAAAAAAAAAAAAA
II222111AAAAAAAAAAAAAAAAAAAAAAAAAAAAAAAAAAAAAAAAAAAAAAAAAAAAAAAA
I222111AAAAAAAAAAAAAAAAAAAAAAAAAAAAAAAAAAAAAAAAAAAAAAAAAAAAAAAAA
222111AAAAAAAAAAAAAAAAAAAAAAAAAAAAAAAAAAAAAAAAAAAAAAAAAAAAAAAAAA
22111AAAAAAAAAAAAAAAAAAAAAAAAAAAAAAAAAAAAAAAAAAAAAAAAAAAAAAAAAAA
2111AAAAAAAAAAAAAAAAAAAAAAAAAAAAAAAAAAAAAAAAAAAAAAAAAAAAAAAAAAAA
111AAAAAAAAAAAAAAAAAAAAAAAAAAAAAAAAAAAAAAAAAAAAAAAAAAAAAAAAAAAAA
11AAAAAAAAAAAAAAAAAAAAAAAAAAAAAAAAAAAAAAAAAAAAAAAAAAAAAAAAAAAAAA
1AAAAAAAAAAAAAAAAAAAAAAAAAAAAAAAAAAAAAAAAAAAAAAAAAAAAAAAAAAAAAAA
AAAAAAAAAAAAAAAAAAAAAAAAAAAAAAAAAAAAAAAAAAAAAAAAAAAAAAAAAAAAAAAA
[MLOP] Prefetch Degree Mean: 3.98729
[MLOP] Prefetch Degree SD: 1.88608
[MLOP] Max Score Left Mean (%): 22.7938
[MLOP] Max Score Left SD (%): 12.5008
[MLOP] Max Score Right Mean (%): 66.9595
[MLOP] Max Score Right SD (%): 8.83451
 All Calls: 23575443
 Critical Calls: 23575443
------------------
Depth Distribution
------------------
depth 0: 0
depth 1: 11080961
depth 2: 1343715
depth 3: 589783
depth 4: 344318
depth 5: 164050
depth 6: 45345
depth 7: 7281
depth 8: 498
depth 9: 8
depth 10: 4
depth 11: 1
depth 12: 1
depth 13: 0
depth 14: 0
depth 15: 0
depth 16: 0
depth 17: 0
depth 18: 0
depth 19: 0
depth 20: 0
depth 21: 0
depth 22: 0
depth 23: 0
depth 24: 0
depth 25: 0
depth 26: 0
depth 27: 0
depth 28: 0
depth 29: 0
Total: 13575965
-----------------------------
-----------------------------
	Captured at Filter
-----------------------------
depth 0: 0
depth 1: 113983
depth 2: 67053
depth 3: 62452
depth 4: 59807
depth 5: 41651
depth 6: 21282
depth 7: 1017
depth 8: 78
depth 9: 0
depth 10: 0
depth 11: 0
depth 12: 0
depth 13: 0
depth 14: 0
depth 15: 0
depth 16: 0
depth 17: 0
depth 18: 0
depth 19: 0
depth 20: 0
depth 21: 0
depth 22: 0
depth 23: 0
depth 24: 0
depth 25: 0
depth 26: 0
depth 27: 0
depth 28: 0
depth 29: 0
-----------------------------
-----------------------------
		Lost at Page
-----------------------------
depth 0: 0
depth 1: 931797
depth 2: 66064
depth 3: 47183
depth 4: 22948
depth 5: 17158
depth 6: 6402
depth 7: 1211
depth 8: 143
depth 9: 5
depth 10: 3
depth 11: 2
depth 12: 2
depth 13: 0
depth 14: 0
depth 15: 0
depth 16: 0
depth 17: 0
depth 18: 0
depth 19: 0
depth 20: 0
depth 21: 0
depth 22: 0
depth 23: 0
depth 24: 0
depth 25: 0
depth 26: 0
depth 27: 0
depth 28: 0
depth 29: 0
-----------------------------
-----------------------------
	Lost due to PQ Size
-----------------------------
285587
-----------------------------
ST read accesses: 11913712
ST write accesses: 192627
PT read accesses: 151511570
PT write accesses: 17656181
FILTER read accesses: 30724196
FILTER write accesses: 10055236
GHR read accesses: 5831863
GHR write accesses: 664633
GHR counter read accesses: 109483226
GHR counter write accesses: 12400067
ST tag read accesses: 4754366557
ST tag write accesses: 67335110

DRAM Statistics
 CHANNEL 0
 RQ ROW_BUFFER_HIT:    3426048  ROW_BUFFER_MISS:    1482868
 DBUS_CONGESTED:       7591
 WQ ROW_BUFFER_HIT:      54801  ROW_BUFFER_MISS:     137051  FULL:          0

 AVG_CONGESTED_CYCLE: 5
 All warmup complete: 2
Channel 0 Bank busy for read cycles: 0
Channel 0 Bank busy for write cycles: 0
Channel 0
Rank 0
0banks busy for read cycles: 6299775
0banks busy for write cycles: 4776
1banks busy for read cycles: 19443242
1banks busy for write cycles: 1605526
2banks busy for read cycles: 19728157
2banks busy for write cycles: 974029
3banks busy for read cycles: 18595394
3banks busy for write cycles: 737489
4banks busy for read cycles: 16419128
4banks busy for write cycles: 633444
5banks busy for read cycles: 13579573
5banks busy for write cycles: 605978
6banks busy for read cycles: 10551684
6banks busy for write cycles: 654782
7banks busy for read cycles: 7374433
7banks busy for write cycles: 1210433
8banks busy for read cycles: 3846590
8banks busy for write cycles: 7661620

CPU 0 Branch Prediction Accuracy: 97.6795% MPKI: 4.20592 Average ROB Occupancy at Mispredict: 47.0906
Branch types
NOT_BRANCH: 40937297 81.8746%
BRANCH_DIRECT_JUMP: 2039126 4.07825%
BRANCH_INDIRECT: 0 0%
BRANCH_CONDITIONAL: 7022760 14.0455%
BRANCH_DIRECT_CALL: 392 0.000784%
BRANCH_INDIRECT_CALL: 0 0%
BRANCH_RETURN: 392 0.000784%
BRANCH_OTHER: 0 0%

DRAM PAGES: 1048576
Allocated PAGES: 9879
