
*** ChampSim Multicore Out-of-Order Simulator ***

Warmup Instructions: 50000000
Simulation Instructions: 50000000
Number of CPUs: 1
LLC sets: 2048
LLC ways: 16
Off-chip DRAM Size: 4096 MB Channels: 1 Width: 64-bit Data Rate: 6400 MT/s
CPU 0 runs ./tracer/traces/605.mcf_s-1554B.champsimtrace.xz
.xz
CPU 0 Bimodal branch predictor
BTB has LRU replacement policy
ITLB has LRU replacement policy
DTLB has LRU replacement policy
STLB has LRU replacement policy
L1I has LRU replacement policy
L1D has LRU replacement policy
L2C has LRU replacement policy
Initialize SHIP state
Assign rand_sets[0]: 454  LLC: 2048
rand_sets[0]: 454
Assign rand_sets[1]: 1662  LLC: 2048
rand_sets[1]: 1662
Assign rand_sets[2]: 1921  LLC: 2048
rand_sets[2]: 1921
Assign rand_sets[3]: 1131  LLC: 2048
rand_sets[3]: 1131
Assign rand_sets[4]: 331  LLC: 2048
rand_sets[4]: 331
Assign rand_sets[5]: 1531  LLC: 2048
rand_sets[5]: 1531
Assign rand_sets[6]: 482  LLC: 2048
rand_sets[6]: 482
Assign rand_sets[7]: 1275  LLC: 2048
rand_sets[7]: 1275
Assign rand_sets[8]: 1876  LLC: 2048
rand_sets[8]: 1876
Assign rand_sets[9]: 2038  LLC: 2048
rand_sets[9]: 2038
Assign rand_sets[10]: 701  LLC: 2048
rand_sets[10]: 701
Assign rand_sets[11]: 479  LLC: 2048
rand_sets[11]: 479
Assign rand_sets[12]: 892  LLC: 2048
rand_sets[12]: 892
Assign rand_sets[13]: 1820  LLC: 2048
rand_sets[13]: 1820
Assign rand_sets[14]: 1505  LLC: 2048
rand_sets[14]: 1505
Assign rand_sets[15]: 1159  LLC: 2048
rand_sets[15]: 1159
Assign rand_sets[16]: 513  LLC: 2048
rand_sets[16]: 513
Assign rand_sets[17]: 703  LLC: 2048
rand_sets[17]: 703
Assign rand_sets[18]: 561  LLC: 2048
rand_sets[18]: 561
Assign rand_sets[19]: 990  LLC: 2048
rand_sets[19]: 990
Assign rand_sets[20]: 342  LLC: 2048
rand_sets[20]: 342
Assign rand_sets[21]: 882  LLC: 2048
rand_sets[21]: 882
Assign rand_sets[22]: 15  LLC: 2048
rand_sets[22]: 15
Assign rand_sets[23]: 71  LLC: 2048
rand_sets[23]: 71
Assign rand_sets[24]: 1127  LLC: 2048
rand_sets[24]: 1127
Assign rand_sets[25]: 1382  LLC: 2048
rand_sets[25]: 1382
Assign rand_sets[26]: 647  LLC: 2048
rand_sets[26]: 647
Assign rand_sets[27]: 857  LLC: 2048
rand_sets[27]: 857
Assign rand_sets[28]: 1450  LLC: 2048
rand_sets[28]: 1450
Assign rand_sets[29]: 1160  LLC: 2048
rand_sets[29]: 1160
Assign rand_sets[30]: 1852  LLC: 2048
rand_sets[30]: 1852
Assign rand_sets[31]: 1881  LLC: 2048
rand_sets[31]: 1881
Assign rand_sets[32]: 1770  LLC: 2048
rand_sets[32]: 1770
Assign rand_sets[33]: 1622  LLC: 2048
rand_sets[33]: 1622
Assign rand_sets[34]: 275  LLC: 2048
rand_sets[34]: 275
Assign rand_sets[35]: 635  LLC: 2048
rand_sets[35]: 635
Assign rand_sets[36]: 466  LLC: 2048
rand_sets[36]: 466
Assign rand_sets[37]: 1413  LLC: 2048
rand_sets[37]: 1413
Assign rand_sets[38]: 417  LLC: 2048
rand_sets[38]: 417
Assign rand_sets[39]: 472  LLC: 2048
rand_sets[39]: 472
Assign rand_sets[40]: 1340  LLC: 2048
rand_sets[40]: 1340
Assign rand_sets[41]: 852  LLC: 2048
rand_sets[41]: 852
Assign rand_sets[42]: 1365  LLC: 2048
rand_sets[42]: 1365
Assign rand_sets[43]: 47  LLC: 2048
rand_sets[43]: 47
Assign rand_sets[44]: 823  LLC: 2048
rand_sets[44]: 823
Assign rand_sets[45]: 686  LLC: 2048
rand_sets[45]: 686
Assign rand_sets[46]: 1637  LLC: 2048
rand_sets[46]: 1637
Assign rand_sets[47]: 1115  LLC: 2048
rand_sets[47]: 1115
Assign rand_sets[48]: 986  LLC: 2048
rand_sets[48]: 986
Assign rand_sets[49]: 258  LLC: 2048
rand_sets[49]: 258
Assign rand_sets[50]: 633  LLC: 2048
rand_sets[50]: 633
Assign rand_sets[51]: 920  LLC: 2048
rand_sets[51]: 920
Assign rand_sets[52]: 204  LLC: 2048
rand_sets[52]: 204
Assign rand_sets[53]: 227  LLC: 2048
rand_sets[53]: 227
Assign rand_sets[54]: 1818  LLC: 2048
rand_sets[54]: 1818
Assign rand_sets[55]: 886  LLC: 2048
rand_sets[55]: 886
Assign rand_sets[56]: 1422  LLC: 2048
rand_sets[56]: 1422
Assign rand_sets[57]: 607  LLC: 2048
rand_sets[57]: 607
Assign rand_sets[58]: 217  LLC: 2048
rand_sets[58]: 217
Assign rand_sets[59]: 1945  LLC: 2048
rand_sets[59]: 1945
Assign rand_sets[60]: 143  LLC: 2048
rand_sets[60]: 143
Assign rand_sets[61]: 1311  LLC: 2048
rand_sets[61]: 1311
Assign rand_sets[62]: 319  LLC: 2048
rand_sets[62]: 319
Assign rand_sets[63]: 1846  LLC: 2048
rand_sets[63]: 1846
Assign rand_sets[64]: 238  LLC: 2048
rand_sets[64]: 238
Assign rand_sets[65]: 67  LLC: 2048
rand_sets[65]: 67
Assign rand_sets[66]: 1912  LLC: 2048
rand_sets[66]: 1912
Assign rand_sets[67]: 1613  LLC: 2048
rand_sets[67]: 1613
Assign rand_sets[68]: 1293  LLC: 2048
rand_sets[68]: 1293
Assign rand_sets[69]: 1018  LLC: 2048
rand_sets[69]: 1018
Assign rand_sets[70]: 1982  LLC: 2048
rand_sets[70]: 1982
Assign rand_sets[71]: 1702  LLC: 2048
rand_sets[71]: 1702
Assign rand_sets[72]: 1498  LLC: 2048
rand_sets[72]: 1498
Assign rand_sets[73]: 228  LLC: 2048
rand_sets[73]: 228
Assign rand_sets[74]: 1414  LLC: 2048
rand_sets[74]: 1414
Assign rand_sets[75]: 1166  LLC: 2048
rand_sets[75]: 1166
Assign rand_sets[76]: 732  LLC: 2048
rand_sets[76]: 732
Assign rand_sets[77]: 297  LLC: 2048
rand_sets[77]: 297
Assign rand_sets[78]: 1133  LLC: 2048
rand_sets[78]: 1133
Assign rand_sets[79]: 846  LLC: 2048
rand_sets[79]: 846
Assign rand_sets[80]: 767  LLC: 2048
rand_sets[80]: 767
Assign rand_sets[81]: 1878  LLC: 2048
rand_sets[81]: 1878
Assign rand_sets[82]: 993  LLC: 2048
rand_sets[82]: 993
Assign rand_sets[83]: 1392  LLC: 2048
rand_sets[83]: 1392
Assign rand_sets[84]: 1568  LLC: 2048
rand_sets[84]: 1568
Assign rand_sets[85]: 1787  LLC: 2048
rand_sets[85]: 1787
Assign rand_sets[86]: 399  LLC: 2048
rand_sets[86]: 399
Assign rand_sets[87]: 1201  LLC: 2048
rand_sets[87]: 1201
Assign rand_sets[88]: 856  LLC: 2048
rand_sets[88]: 856
Assign rand_sets[89]: 773  LLC: 2048
rand_sets[89]: 773
Assign rand_sets[90]: 1680  LLC: 2048
rand_sets[90]: 1680
Assign rand_sets[91]: 1477  LLC: 2048
rand_sets[91]: 1477
Assign rand_sets[92]: 9  LLC: 2048
rand_sets[92]: 9
Assign rand_sets[93]: 1500  LLC: 2048
rand_sets[93]: 1500
Assign rand_sets[94]: 851  LLC: 2048
rand_sets[94]: 851
Assign rand_sets[95]: 973  LLC: 2048
rand_sets[95]: 973
Assign rand_sets[96]: 938  LLC: 2048
rand_sets[96]: 938
Assign rand_sets[97]: 1851  LLC: 2048
rand_sets[97]: 1851
Assign rand_sets[98]: 1608  LLC: 2048
rand_sets[98]: 1608
Assign rand_sets[99]: 1945  LLC: 2048
Assign rand_sets[99]: 1106  LLC: 2048
rand_sets[99]: 1106
Assign rand_sets[100]: 979  LLC: 2048
rand_sets[100]: 979
Assign rand_sets[101]: 338  LLC: 2048
rand_sets[101]: 338
Assign rand_sets[102]: 1693  LLC: 2048
rand_sets[102]: 1693
Assign rand_sets[103]: 6  LLC: 2048
rand_sets[103]: 6
Assign rand_sets[104]: 671  LLC: 2048
rand_sets[104]: 671
Assign rand_sets[105]: 490  LLC: 2048
rand_sets[105]: 490
Assign rand_sets[106]: 1461  LLC: 2048
rand_sets[106]: 1461
Assign rand_sets[107]: 1730  LLC: 2048
rand_sets[107]: 1730
Assign rand_sets[108]: 1030  LLC: 2048
rand_sets[108]: 1030
Assign rand_sets[109]: 19  LLC: 2048
rand_sets[109]: 19
Assign rand_sets[110]: 920  LLC: 2048
Assign rand_sets[110]: 329  LLC: 2048
rand_sets[110]: 329
Assign rand_sets[111]: 1714  LLC: 2048
rand_sets[111]: 1714
Assign rand_sets[112]: 1  LLC: 2048
rand_sets[112]: 1
Assign rand_sets[113]: 1822  LLC: 2048
rand_sets[113]: 1822
Assign rand_sets[114]: 172  LLC: 2048
rand_sets[114]: 172
Assign rand_sets[115]: 1586  LLC: 2048
rand_sets[115]: 1586
Assign rand_sets[116]: 648  LLC: 2048
rand_sets[116]: 648
Assign rand_sets[117]: 1329  LLC: 2048
rand_sets[117]: 1329
Assign rand_sets[118]: 668  LLC: 2048
rand_sets[118]: 668
Assign rand_sets[119]: 1874  LLC: 2048
rand_sets[119]: 1874
Assign rand_sets[120]: 70  LLC: 2048
rand_sets[120]: 70
Assign rand_sets[121]: 661  LLC: 2048
rand_sets[121]: 661
Assign rand_sets[122]: 1649  LLC: 2048
rand_sets[122]: 1649
Assign rand_sets[123]: 1590  LLC: 2048
rand_sets[123]: 1590
Assign rand_sets[124]: 911  LLC: 2048
rand_sets[124]: 911
Assign rand_sets[125]: 1367  LLC: 2048
rand_sets[125]: 1367
Assign rand_sets[126]: 1782  LLC: 2048
rand_sets[126]: 1782
Assign rand_sets[127]: 569  LLC: 2048
rand_sets[127]: 569
Assign rand_sets[128]: 1309  LLC: 2048
rand_sets[128]: 1309
Assign rand_sets[129]: 534  LLC: 2048
rand_sets[129]: 534
Assign rand_sets[130]: 1274  LLC: 2048
rand_sets[130]: 1274
Assign rand_sets[131]: 904  LLC: 2048
rand_sets[131]: 904
Assign rand_sets[132]: 1908  LLC: 2048
rand_sets[132]: 1908
Assign rand_sets[133]: 245  LLC: 2048
rand_sets[133]: 245
Assign rand_sets[134]: 1688  LLC: 2048
rand_sets[134]: 1688
Assign rand_sets[135]: 1660  LLC: 2048
rand_sets[135]: 1660
Assign rand_sets[136]: 1303  LLC: 2048
rand_sets[136]: 1303
Assign rand_sets[137]: 1628  LLC: 2048
rand_sets[137]: 1628
Assign rand_sets[138]: 1857  LLC: 2048
rand_sets[138]: 1857
Assign rand_sets[139]: 187  LLC: 2048
rand_sets[139]: 187
Assign rand_sets[140]: 1389  LLC: 2048
rand_sets[140]: 1389
Assign rand_sets[141]: 881  LLC: 2048
rand_sets[141]: 881
Assign rand_sets[142]: 1166  LLC: 2048
Assign rand_sets[142]: 1039  LLC: 2048
rand_sets[142]: 1039
Assign rand_sets[143]: 1136  LLC: 2048
rand_sets[143]: 1136
Assign rand_sets[144]: 601  LLC: 2048
rand_sets[144]: 601
Assign rand_sets[145]: 967  LLC: 2048
rand_sets[145]: 967
Assign rand_sets[146]: 769  LLC: 2048
rand_sets[146]: 769
Assign rand_sets[147]: 283  LLC: 2048
rand_sets[147]: 283
Assign rand_sets[148]: 559  LLC: 2048
rand_sets[148]: 559
Assign rand_sets[149]: 1075  LLC: 2048
rand_sets[149]: 1075
Assign rand_sets[150]: 829  LLC: 2048
rand_sets[150]: 829
Assign rand_sets[151]: 1681  LLC: 2048
rand_sets[151]: 1681
Assign rand_sets[152]: 1728  LLC: 2048
rand_sets[152]: 1728
Assign rand_sets[153]: 541  LLC: 2048
rand_sets[153]: 541
Assign rand_sets[154]: 421  LLC: 2048
rand_sets[154]: 421
Assign rand_sets[155]: 1037  LLC: 2048
rand_sets[155]: 1037
Assign rand_sets[156]: 13  LLC: 2048
rand_sets[156]: 13
Assign rand_sets[157]: 1707  LLC: 2048
rand_sets[157]: 1707
Assign rand_sets[158]: 1075  LLC: 2048
Assign rand_sets[158]: 1933  LLC: 2048
rand_sets[158]: 1933
Assign rand_sets[159]: 1406  LLC: 2048
rand_sets[159]: 1406
Assign rand_sets[160]: 94  LLC: 2048
rand_sets[160]: 94
Assign rand_sets[161]: 1423  LLC: 2048
rand_sets[161]: 1423
Assign rand_sets[162]: 1854  LLC: 2048
rand_sets[162]: 1854
Assign rand_sets[163]: 230  LLC: 2048
rand_sets[163]: 230
Assign rand_sets[164]: 104  LLC: 2048
rand_sets[164]: 104
Assign rand_sets[165]: 1652  LLC: 2048
rand_sets[165]: 1652
Assign rand_sets[166]: 1446  LLC: 2048
rand_sets[166]: 1446
Assign rand_sets[167]: 1338  LLC: 2048
rand_sets[167]: 1338
Assign rand_sets[168]: 177  LLC: 2048
rand_sets[168]: 177
Assign rand_sets[169]: 195  LLC: 2048
rand_sets[169]: 195
Assign rand_sets[170]: 1171  LLC: 2048
rand_sets[170]: 1171
Assign rand_sets[171]: 1297  LLC: 2048
rand_sets[171]: 1297
Assign rand_sets[172]: 1704  LLC: 2048
rand_sets[172]: 1704
Assign rand_sets[173]: 100  LLC: 2048
rand_sets[173]: 100
Assign rand_sets[174]: 711  LLC: 2048
rand_sets[174]: 711
Assign rand_sets[175]: 1243  LLC: 2048
rand_sets[175]: 1243
Assign rand_sets[176]: 1738  LLC: 2048
rand_sets[176]: 1738
Assign rand_sets[177]: 1504  LLC: 2048
rand_sets[177]: 1504
Assign rand_sets[178]: 96  LLC: 2048
rand_sets[178]: 96
Assign rand_sets[179]: 1249  LLC: 2048
rand_sets[179]: 1249
Assign rand_sets[180]: 1267  LLC: 2048
rand_sets[180]: 1267
Assign rand_sets[181]: 1727  LLC: 2048
rand_sets[181]: 1727
Assign rand_sets[182]: 1545  LLC: 2048
rand_sets[182]: 1545
Assign rand_sets[183]: 1792  LLC: 2048
rand_sets[183]: 1792
Assign rand_sets[184]: 1383  LLC: 2048
rand_sets[184]: 1383
Assign rand_sets[185]: 1954  LLC: 2048
rand_sets[185]: 1954
Assign rand_sets[186]: 739  LLC: 2048
rand_sets[186]: 739
Assign rand_sets[187]: 1061  LLC: 2048
rand_sets[187]: 1061
Assign rand_sets[188]: 672  LLC: 2048
rand_sets[188]: 672
Assign rand_sets[189]: 1057  LLC: 2048
rand_sets[189]: 1057
Assign rand_sets[190]: 1329  LLC: 2048
Assign rand_sets[190]: 1415  LLC: 2048
rand_sets[190]: 1415
Assign rand_sets[191]: 981  LLC: 2048
rand_sets[191]: 981
Assign rand_sets[192]: 98  LLC: 2048
rand_sets[192]: 98
Assign rand_sets[193]: 453  LLC: 2048
rand_sets[193]: 453
Assign rand_sets[194]: 1448  LLC: 2048
rand_sets[194]: 1448
Assign rand_sets[195]: 79  LLC: 2048
rand_sets[195]: 79
Assign rand_sets[196]: 126  LLC: 2048
rand_sets[196]: 126
Assign rand_sets[197]: 1582  LLC: 2048
rand_sets[197]: 1582
Assign rand_sets[198]: 1289  LLC: 2048
rand_sets[198]: 1289
Assign rand_sets[199]: 875  LLC: 2048
rand_sets[199]: 875
Assign rand_sets[200]: 404  LLC: 2048
rand_sets[200]: 404
Assign rand_sets[201]: 415  LLC: 2048
rand_sets[201]: 415
Assign rand_sets[202]: 1712  LLC: 2048
rand_sets[202]: 1712
Assign rand_sets[203]: 1389  LLC: 2048
Assign rand_sets[203]: 169  LLC: 2048
rand_sets[203]: 169
Assign rand_sets[204]: 158  LLC: 2048
rand_sets[204]: 158
Assign rand_sets[205]: 90  LLC: 2048
rand_sets[205]: 90
Assign rand_sets[206]: 1291  LLC: 2048
rand_sets[206]: 1291
Assign rand_sets[207]: 838  LLC: 2048
rand_sets[207]: 838
Assign rand_sets[208]: 1904  LLC: 2048
rand_sets[208]: 1904
Assign rand_sets[209]: 640  LLC: 2048
rand_sets[209]: 640
Assign rand_sets[210]: 1462  LLC: 2048
rand_sets[210]: 1462
Assign rand_sets[211]: 1487  LLC: 2048
rand_sets[211]: 1487
Assign rand_sets[212]: 1863  LLC: 2048
rand_sets[212]: 1863
Assign rand_sets[213]: 1036  LLC: 2048
rand_sets[213]: 1036
Assign rand_sets[214]: 1702  LLC: 2048
Assign rand_sets[214]: 933  LLC: 2048
rand_sets[214]: 933
Assign rand_sets[215]: 554  LLC: 2048
rand_sets[215]: 554
Assign rand_sets[216]: 1496  LLC: 2048
rand_sets[216]: 1496
Assign rand_sets[217]: 1708  LLC: 2048
rand_sets[217]: 1708
Assign rand_sets[218]: 1275  LLC: 2048
Assign rand_sets[218]: 416  LLC: 2048
rand_sets[218]: 416
Assign rand_sets[219]: 491  LLC: 2048
rand_sets[219]: 491
Assign rand_sets[220]: 183  LLC: 2048
rand_sets[220]: 183
Assign rand_sets[221]: 1657  LLC: 2048
rand_sets[221]: 1657
Assign rand_sets[222]: 1060  LLC: 2048
rand_sets[222]: 1060
Assign rand_sets[223]: 626  LLC: 2048
rand_sets[223]: 626
Assign rand_sets[224]: 1315  LLC: 2048
rand_sets[224]: 1315
Assign rand_sets[225]: 1682  LLC: 2048
rand_sets[225]: 1682
Assign rand_sets[226]: 1352  LLC: 2048
rand_sets[226]: 1352
Assign rand_sets[227]: 1152  LLC: 2048
rand_sets[227]: 1152
Assign rand_sets[228]: 965  LLC: 2048
rand_sets[228]: 965
Assign rand_sets[229]: 1190  LLC: 2048
rand_sets[229]: 1190
Assign rand_sets[230]: 1191  LLC: 2048
rand_sets[230]: 1191
Assign rand_sets[231]: 645  LLC: 2048
rand_sets[231]: 645
Assign rand_sets[232]: 695  LLC: 2048
rand_sets[232]: 695
Assign rand_sets[233]: 1495  LLC: 2048
rand_sets[233]: 1495
Assign rand_sets[234]: 1932  LLC: 2048
rand_sets[234]: 1932
Assign rand_sets[235]: 656  LLC: 2048
rand_sets[235]: 656
Assign rand_sets[236]: 1508  LLC: 2048
rand_sets[236]: 1508
Assign rand_sets[237]: 939  LLC: 2048
rand_sets[237]: 939
Assign rand_sets[238]: 355  LLC: 2048
rand_sets[238]: 355
Assign rand_sets[239]: 1092  LLC: 2048
rand_sets[239]: 1092
Assign rand_sets[240]: 850  LLC: 2048
rand_sets[240]: 850
Assign rand_sets[241]: 102  LLC: 2048
rand_sets[241]: 102
Assign rand_sets[242]: 1763  LLC: 2048
rand_sets[242]: 1763
Assign rand_sets[243]: 668  LLC: 2048
Assign rand_sets[243]: 51  LLC: 2048
rand_sets[243]: 51
Assign rand_sets[244]: 1317  LLC: 2048
rand_sets[244]: 1317
Assign rand_sets[245]: 2041  LLC: 2048
rand_sets[245]: 2041
Assign rand_sets[246]: 1374  LLC: 2048
rand_sets[246]: 1374
Assign rand_sets[247]: 682  LLC: 2048
rand_sets[247]: 682
Assign rand_sets[248]: 1466  LLC: 2048
rand_sets[248]: 1466
Assign rand_sets[249]: 1139  LLC: 2048
rand_sets[249]: 1139
Assign rand_sets[250]: 1632  LLC: 2048
rand_sets[250]: 1632
Assign rand_sets[251]: 1117  LLC: 2048
rand_sets[251]: 1117
Assign rand_sets[252]: 1611  LLC: 2048
rand_sets[252]: 1611
Assign rand_sets[253]: 1905  LLC: 2048
rand_sets[253]: 1905
Assign rand_sets[254]: 1662  LLC: 2048
Assign rand_sets[254]: 446  LLC: 2048
rand_sets[254]: 446
Assign rand_sets[255]: 1705  LLC: 2048
rand_sets[255]: 1705
Heartbeat CPU 0 instructions: 10000001 cycles: 3504582 heartbeat IPC: 2.85341 cumulative IPC: 2.85341 (Simulation time: 0 hr 0 min 58 sec) 
Heartbeat CPU 0 instructions: 20000000 cycles: 7032247 heartbeat IPC: 2.83474 cumulative IPC: 2.84404 (Simulation time: 0 hr 2 min 13 sec) 
Heartbeat CPU 0 instructions: 30000003 cycles: 10570375 heartbeat IPC: 2.82635 cumulative IPC: 2.83812 (Simulation time: 0 hr 3 min 45 sec) 
Heartbeat CPU 0 instructions: 40000000 cycles: 14095195 heartbeat IPC: 2.83702 cumulative IPC: 2.83785 (Simulation time: 0 hr 5 min 19 sec) 
Heartbeat CPU 0 instructions: 50000001 cycles: 17622538 heartbeat IPC: 2.835 cumulative IPC: 2.83728 (Simulation time: 0 hr 6 min 21 sec) 

Warmup complete CPU 0 instructions: 50000001 cycles: 17622538 (Simulation time: 0 hr 6 min 21 sec) 

Heartbeat CPU 0 instructions: 60000002 cycles: 43427217 heartbeat IPC: 0.387527 cumulative IPC: 0.387527 (Simulation time: 0 hr 8 min 15 sec) 
Heartbeat CPU 0 instructions: 70000002 cycles: 69601154 heartbeat IPC: 0.382059 cumulative IPC: 0.384774 (Simulation time: 0 hr 10 min 32 sec) 
Heartbeat CPU 0 instructions: 80000000 cycles: 96193807 heartbeat IPC: 0.376044 cumulative IPC: 0.381819 (Simulation time: 0 hr 12 min 12 sec) 
Heartbeat CPU 0 instructions: 90000003 cycles: 121660095 heartbeat IPC: 0.392676 cumulative IPC: 0.384477 (Simulation time: 0 hr 13 min 43 sec) 
Heartbeat CPU 0 instructions: 100000001 cycles: 147040675 heartbeat IPC: 0.394002 cumulative IPC: 0.386345 (Simulation time: 0 hr 15 min 29 sec) 
Finished CPU 0 instructions: 50000000 cycles: 129418137 cumulative IPC: 0.386345 (Simulation time: 0 hr 15 min 29 sec) 

ChampSim completed all CPUs

Region of Interest Statistics

CPU 0 cumulative IPC: 0.386345 instructions: 50000000 cycles: 129418137
ITLB TOTAL     ACCESS:    9938684  HIT:    9938684  MISS:          0  HIT %:        100  MISS %:          0   MPKI: 0
ITLB LOAD TRANSLATION ACCESS:    9938684  HIT:    9938684  MISS:          0  HIT %:        100  MISS %:          0   MPKI: 0
ITLB PREFETCH  REQUESTED:          0  ISSUED:          0  USEFUL:          0  USELESS:          0
ITLB USEFUL LOAD PREFETCHES:          0 PREFETCH ISSUED TO LOWER LEVEL:          0  ACCURACY: -nan
ITLB TIMELY PREFETCHES:          0 LATE PREFETCHES: 0 DROPPED PREFETCHES: 0
ITLB PREFETCHES SAME FILL-ORIGIN LEVEL: 0 DIFFERENT FILL-ORIGIN LEVEL: 0
ITLB AVERAGE MISS LATENCY: -nan cycles
ITLB RQ	ACCESS:   12183044	FORWARD:          0	MERGED:    2244361	TO_CACHE:    9938683

DTLB TOTAL     ACCESS:   15728646  HIT:   15533178  MISS:     195468  HIT %:    98.7572  MISS %:    1.24275   MPKI: 3.90936
DTLB LOAD TRANSLATION ACCESS:   15728646  HIT:   15533178  MISS:     195468  HIT %:    98.7572  MISS %:    1.24275   MPKI: 3.90936
DTLB PREFETCH  REQUESTED:          0  ISSUED:          0  USEFUL:          0  USELESS:          0
DTLB USEFUL LOAD PREFETCHES:          0 PREFETCH ISSUED TO LOWER LEVEL:          0  ACCURACY: -nan
DTLB TIMELY PREFETCHES:          0 LATE PREFETCHES: 0 DROPPED PREFETCHES: 0
DTLB PREFETCHES SAME FILL-ORIGIN LEVEL: 0 DIFFERENT FILL-ORIGIN LEVEL: 0
DTLB AVERAGE MISS LATENCY: 13.2221 cycles
DTLB RQ	ACCESS:   19480417	FORWARD:          0	MERGED:    3746889	TO_CACHE:   15733528

STLB TOTAL     ACCESS:    4914393  HIT:    4909903  MISS:       4490  HIT %:    99.9086  MISS %:  0.0913643   MPKI: 0.0898
STLB LOAD TRANSLATION ACCESS:     195468  HIT:     190982  MISS:       4486  HIT %:     97.705  MISS %:      2.295   MPKI: 0.08972
STLB TRANSLATION FROM L1D PREFETCHER ACCESS:    4718925  HIT:    4718921  MISS:          4  HIT %:    99.9999  MISS %: 8.47651e-05   MPKI: 8e-05
STLB PREFETCH  REQUESTED:          0  ISSUED:          0  USEFUL:          3  USELESS:          1
STLB USEFUL LOAD PREFETCHES:          3 PREFETCH ISSUED TO LOWER LEVEL:          0  ACCURACY: inf
STLB TIMELY PREFETCHES:          3 LATE PREFETCHES: 0 DROPPED PREFETCHES: 0
STLB PREFETCHES SAME FILL-ORIGIN LEVEL: 0 DIFFERENT FILL-ORIGIN LEVEL: 0
STLB AVERAGE MISS LATENCY: 183.417 cycles
STLB RQ	ACCESS:   11937542	FORWARD:          0	MERGED:    7023149	TO_CACHE:    4914393

STLB Hit, L1D data hit: 0
STLB Hit, L2C data hit: 0
STLB Hit, LLC data hit: 0
STLB Hit, LLC data miss: 0
STLB STLB hints to L2: 0
L1D TOTAL     ACCESS:   25397051  HIT:   16145503  MISS:    9251548  HIT %:    63.5724  MISS %:    36.4276   MPKI: 185.031
L1D LOAD      ACCESS:   16029904  HIT:   13516109  MISS:    2513795  HIT %:    84.3181  MISS %:    15.6819   MPKI: 50.2759
L1D RFO       ACCESS:    2779775  HIT:    2625882  MISS:     153893  HIT %:    94.4638  MISS %:    5.53617   MPKI: 3.07786
L1D PREFETCH  ACCESS:    6587372  HIT:       3512  MISS:    6583860  HIT %:  0.0533141  MISS %:    99.9467   MPKI: 131.677
AGUS PREFETCH L1 MISS: 0
L1D PREFETCH  REQUESTED:   23601359  ISSUED:   23601359  USEFUL:    4962863  USELESS:    1620929
L1D USEFUL LOAD PREFETCHES:    4962863 PREFETCH ISSUED TO LOWER LEVEL:   11597059  ACCURACY: 42.7942
L1D TIMELY PREFETCHES:    4962863 LATE PREFETCHES: 649251 DROPPED PREFETCHES: 0
L1D PREFETCHES SAME FILL-ORIGIN LEVEL: 7233360 DIFFERENT FILL-ORIGIN LEVEL: 4363699
L1D AVERAGE MISS LATENCY: 5.75942e+06 cycles
L1D RQ	ACCESS:   20563893	FORWARD:          0	MERGED:    4243487	TO_CACHE:   16289532
L1D WQ	ACCESS:    3711168	FORWARD:      30874	MERGED:     520283	TO_CACHE:    3190885
L1D PQ	ACCESS:   11859285	FORWARD:          0	MERGED:     117211	TO_CACHE:   11742074

L1D UNIQUE REGIONS ACCESSED: 0
L1D REGIONS CONFLICTS: 0
L1D Cross Page Prefetch Requests: 0
L1D Same Page Prefetch Requests: 22570689
L1D ROI Sum of L1D PQ occupancy: 155742415
L1D PREFETCHES PUSHED FROM L2C: 0
L1I TOTAL     ACCESS:   12183043  HIT:   12183043  MISS:          0  HIT %:        100  MISS %:          0   MPKI: 0
L1I LOAD      ACCESS:   12183043  HIT:   12183043  MISS:          0  HIT %:        100  MISS %:          0   MPKI: 0
L1I PREFETCH  REQUESTED:          0  ISSUED:          0  USEFUL:          0  USELESS:          0
L1I USEFUL LOAD PREFETCHES:          0 PREFETCH ISSUED TO LOWER LEVEL:          0  ACCURACY: -nan
L1I TIMELY PREFETCHES:          0 LATE PREFETCHES: 0 DROPPED PREFETCHES: 0
L1I PREFETCHES SAME FILL-ORIGIN LEVEL: 0 DIFFERENT FILL-ORIGIN LEVEL: 0
L1I AVERAGE MISS LATENCY: -nan cycles
L1I RQ	ACCESS:   16508043	FORWARD:          0	MERGED:    4324999	TO_CACHE:   12183044

BTB TOTAL     ACCESS:    8795726  HIT:    8795694  MISS:         32  HIT %:    99.9996  MISS %: 0.000363813   MPKI: 0.00064
BTB BRANCH_DIRECT_JUMP	ACCESS:    2039125  HIT:    2039119  MISS:          6
BTB BRANCH_INDIRECT	ACCESS:          0  HIT:          0  MISS:          0
BTB BRANCH_CONDITIONAL	ACCESS:    6755817  HIT:    6755795  MISS:         22
BTB BRANCH_DIRECT_CALL	ACCESS:        392  HIT:        390  MISS:          2
BTB BRANCH_INDIRECT_CALL	ACCESS:          0  HIT:          0  MISS:          0
BTB BRANCH_RETURN	ACCESS:        392  HIT:        390  MISS:          2
BTB BRANCH_OTHER ACCESS:           0  HIT:          0  MISS:          0

L2C TOTAL     ACCESS:   13151684  HIT:    3462997  MISS:    9688687  HIT %:    26.3312  MISS %:    73.6688   MPKI: 193.774
L2C LOAD      ACCESS:    1864544  HIT:     249563  MISS:    1614981  HIT %:    13.3847  MISS %:    86.6153   MPKI: 32.2996
L2C DATA LOAD MPKI: 32.2996
L2C INSTRUCTION LOAD MPKI: 0
L2C RFO       ACCESS:     153646  HIT:        272  MISS:     153374  HIT %:    0.17703  MISS %:     99.823   MPKI: 3.06748
L2C PREFETCH  ACCESS:   10936880  HIT:    3017963  MISS:    7918917  HIT %:    27.5944  MISS %:    72.4056   MPKI: 158.378
AGUS PREFETCH L1 MISS: 0
L2C DATA PREFETCH MPKI: 158.378
L2C INSTRUCTION PREFETCH MPKI: 0
L2C WRITEBACK ACCESS:     192118  HIT:     191839  MISS:        279  HIT %:    99.8548  MISS %:   0.145223   MPKI: 0.00558
L2C LOAD TRANSLATION ACCESS:       4490  HIT:       3360  MISS:       1130  HIT %:     74.833  MISS %:     25.167   MPKI: 0.0226
L2C TRANSLATION FROM L1D PREFETCHER ACCESS:          6  HIT:          0  MISS:          6  HIT %:          0  MISS %:        100   MPKI: 0.00012
L2C PREFETCH  REQUESTED:          0  ISSUED:          0  USEFUL:     248811  USELESS:    7670330
L2C USEFUL LOAD PREFETCHES:     248811 PREFETCH ISSUED TO LOWER LEVEL:    7954632  ACCURACY: 3.12788
L2C TIMELY PREFETCHES:     248811 LATE PREFETCHES: 35716 DROPPED PREFETCHES: 0
L2C PREFETCHES SAME FILL-ORIGIN LEVEL: 4362667 DIFFERENT FILL-ORIGIN LEVEL: 0
L2C AVERAGE MISS LATENCY: 87.269 cycles
L2C RQ	ACCESS:    2022685	FORWARD:          0	MERGED:          0	TO_CACHE:    2022685
L2C WQ	ACCESS:     192118	FORWARD:          0	MERGED:          0	TO_CACHE:     192118
L2C PQ	ACCESS:   11597059	FORWARD:          0	MERGED:        965	TO_CACHE:   11596094

L2C Instructions Evicting Data 0
L2C Translations Evicting Data 1136
L2C Data Evicting Data 9686133
L2C Instructions Evicting Instructions 0
L2C Translations Evicting Instructions 0
L2C Data Evicting Instructions 0
L2C Instructions Evicting Translations 0
L2C Translations Evicting Translations 0
L2C Data Evicting Translations 1139
L2C Dense regions hint from L2: 0
PSCL5 TOTAL     ACCESS:       4490  HIT:       4490  MISS:          0  HIT %:        100  MISS %:          0   MPKI: 0
PSCL5 LOAD TRANSLATION ACCESS:       4486  HIT:       4486  MISS:          0  HIT %:        100  MISS %:          0   MPKI: 0
PSCL5 TRANSLATION FROM L1D PREFETCHER ACCESS:          4  HIT:          4  MISS:          0  HIT %:        100  MISS %:          0   MPKI: 0
PSCL5 PREFETCH  REQUESTED:          0  ISSUED:          0  USEFUL:          0  USELESS:          0
PSCL5 USEFUL LOAD PREFETCHES:          0 PREFETCH ISSUED TO LOWER LEVEL:          0  ACCURACY: -nan
PSCL5 TIMELY PREFETCHES:          0 LATE PREFETCHES: 0 DROPPED PREFETCHES: 0
PSCL5 PREFETCHES SAME FILL-ORIGIN LEVEL: 0 DIFFERENT FILL-ORIGIN LEVEL: 0

PSCL4 TOTAL     ACCESS:       4490  HIT:       4490  MISS:          0  HIT %:        100  MISS %:          0   MPKI: 0
PSCL4 LOAD TRANSLATION ACCESS:       4486  HIT:       4486  MISS:          0  HIT %:        100  MISS %:          0   MPKI: 0
PSCL4 TRANSLATION FROM L1D PREFETCHER ACCESS:          4  HIT:          4  MISS:          0  HIT %:        100  MISS %:          0   MPKI: 0
PSCL4 PREFETCH  REQUESTED:          0  ISSUED:          0  USEFUL:          0  USELESS:          0
PSCL4 USEFUL LOAD PREFETCHES:          0 PREFETCH ISSUED TO LOWER LEVEL:          0  ACCURACY: -nan
PSCL4 TIMELY PREFETCHES:          0 LATE PREFETCHES: 0 DROPPED PREFETCHES: 0
PSCL4 PREFETCHES SAME FILL-ORIGIN LEVEL: 0 DIFFERENT FILL-ORIGIN LEVEL: 0

PSCL3 TOTAL     ACCESS:       4490  HIT:       4490  MISS:          0  HIT %:        100  MISS %:          0   MPKI: 0
PSCL3 LOAD TRANSLATION ACCESS:       4486  HIT:       4486  MISS:          0  HIT %:        100  MISS %:          0   MPKI: 0
PSCL3 TRANSLATION FROM L1D PREFETCHER ACCESS:          4  HIT:          4  MISS:          0  HIT %:        100  MISS %:          0   MPKI: 0
PSCL3 PREFETCH  REQUESTED:          0  ISSUED:          0  USEFUL:          0  USELESS:          0
PSCL3 USEFUL LOAD PREFETCHES:          0 PREFETCH ISSUED TO LOWER LEVEL:          0  ACCURACY: -nan
PSCL3 TIMELY PREFETCHES:          0 LATE PREFETCHES: 0 DROPPED PREFETCHES: 0
PSCL3 PREFETCHES SAME FILL-ORIGIN LEVEL: 0 DIFFERENT FILL-ORIGIN LEVEL: 0

PSCL2 TOTAL     ACCESS:       4490  HIT:       4475  MISS:         15  HIT %:    99.6659  MISS %:   0.334076   MPKI: 0.0003
PSCL2 LOAD TRANSLATION ACCESS:       4488  HIT:       4473  MISS:         15  HIT %:    99.6658  MISS %:   0.334225   MPKI: 0.0003
PSCL2 TRANSLATION FROM L1D PREFETCHER ACCESS:          2  HIT:          2  MISS:          0  HIT %:        100  MISS %:          0   MPKI: 0
PSCL2 PREFETCH  REQUESTED:          0  ISSUED:          0  USEFUL:          0  USELESS:          0
PSCL2 USEFUL LOAD PREFETCHES:          0 PREFETCH ISSUED TO LOWER LEVEL:          0  ACCURACY: -nan
PSCL2 TIMELY PREFETCHES:          0 LATE PREFETCHES: 0 DROPPED PREFETCHES: 0
PSCL2 PREFETCHES SAME FILL-ORIGIN LEVEL: 0 DIFFERENT FILL-ORIGIN LEVEL: 0

LLC TOTAL     ACCESS:    9880142  HIT:    5669044  MISS:    4211098  HIT %:    57.3782  MISS %:    42.6218   MPKI: 84.222
LLC LOAD      ACCESS:    1579265  HIT:    1122291  MISS:     456974  HIT %:    71.0641  MISS %:    28.9359   MPKI: 9.13948
LLC RFO       ACCESS:     153374  HIT:        806  MISS:     152568  HIT %:   0.525513  MISS %:    99.4745   MPKI: 3.05136
LLC PREFETCH  ACCESS:    7954633  HIT:    4527584  MISS:    3427049  HIT %:    56.9176  MISS %:    43.0824   MPKI: 68.541
AGUS PREFETCH L1 MISS: 0
LLC WRITEBACK ACCESS:     191734  HIT:      18340  MISS:     173394  HIT %:    9.56534  MISS %:    90.4347   MPKI: 3.46788
LLC LOAD TRANSLATION ACCESS:       1130  HIT:         23  MISS:       1107  HIT %:     2.0354  MISS %:    97.9646   MPKI: 0.02214
LLC TRANSLATION FROM L1D PREFETCHER ACCESS:          6  HIT:          0  MISS:          6  HIT %:          0  MISS %:        100   MPKI: 0.00012
LLC PREFETCH  REQUESTED:          0  ISSUED:          0  USEFUL:       1920  USELESS:    3426880
LLC USEFUL LOAD PREFETCHES:       1920 PREFETCH ISSUED TO LOWER LEVEL:    3427048  ACCURACY: 0.0560249
LLC TIMELY PREFETCHES:       1920 LATE PREFETCHES: 0 DROPPED PREFETCHES: 0
LLC PREFETCHES SAME FILL-ORIGIN LEVEL: 0 DIFFERENT FILL-ORIGIN LEVEL: 0
LLC AVERAGE MISS LATENCY: 132.123 cycles
LLC RQ	ACCESS:    1733774	FORWARD:          0	MERGED:          0	TO_CACHE:    1733774
LLC WQ	ACCESS:     191734	FORWARD:          0	MERGED:          0	TO_CACHE:     191734
LLC PQ	ACCESS:    7954632	FORWARD:          0	MERGED:          0	TO_CACHE:    7954632

LLC Dense regions hint to LLC: 0

RAW hits: 2011770
Loads Generated: 22575663
Loads sent to L1D: 20563893
Stores Generated: 3711164
Stores sent to L1D: 3711168
Major fault: 0 Minor fault: 9879
Allocated PAGES: 9879
=== CPU 0 L1D Prefetcher Statistics ===
[MLOP] History of tracked zone:
IIIIIIIIIIIIIIIIIIIIIIIIIIIIIIIIIIIIIIIIIIIIIIIIIIIIIIIIIIIIIIII
IIIIIIIIIIIIIIIIIIIIIIIIIIIIIIIIIIIIIIIIIIIIII2IIIIIIIII2II1IIIA
IIIIIIIIIIIIIIIIIIIIIIIIIIIIIIIIIIIIIIIIIIIII22IIIIIIII22I11IIAA
IIIIIIIIIIIIIIIIIIIIIIIIIIIIIIIIIIIIIIIIIIII222IIIIIII222111IAAA
IIIIIIIIIIIIIIIIIIIIIIIIIIIIIIIIIIIIIIIIIII2222IIIIII2221111AAAA
IIIIIIIIIIIIIIIIIIIIIIIIIIIIIIIIIIIIIIIIII22222IIIII2221111AAAAA
IIIIIIIIIIIIIIIIIIIIIIIIIIIIIIIIIIIIIIIII222222IIII2221111AAAAAA
IIIIIIIIIIIIIIIIIIIIIIIIIIIIIIIIIIIIIIIII222222IIII222111AAAAAAA
IIIIIIIIIIIIIIIIIIIIIIIIIIIIIIIIIIIIIIII2222222III2221111AAAAAAA
IIIIIIIIIIIIIIIIIIIIIIIIIIIIIIIIIIIIIIII2222222III222111AAAAAAAA
IIIIIIIIIIIIIIIIIIIIIIIIIIIIIIIIIIIIIIII2222222II2221111AAAAAAAA
IIIIIIIIIIIIIIIIIIIIIIIIIIIIIIIIIIIIIII22222222II2221111AAAAAAAA
IIIIIIIIIIIIIIIIIIIIIIIIIIIIIIIIIIIIII222222222I2221111AAAAAAAAA
IIIIIIIIIIIIIIIIIIIIIIIIIIIIIIIIIIIII22222222222221111AAAAAAAAAA
IIIIIIIIIIIIIIIIIIIIIIIIIIIIIIIIIIII22222222222221111AAAAAAAAAAA
IIIIIIIIIIIIIIIIIIIIIIIIIIIIIIIIIII22222222222221111AAAAAAAAAAAA
IIIIIIIIIIIIIIIIIIIIIIIIIIIIIIIIII22222222222221111AAAAAAAAAAAAA
IIIIIIIIIIIIIIIIIIIIIIIIIIIIIIIII22222222222221111AAAAAAAAAAAAAA
IIIIIIIIIIIIIIIIIIIIIIIIIIIIIIII22222222222221111AAAAAAAAAAAAAAA
IIIIIIIIIIIIIIIIIIIIIIIIIIIIIII22222222222221111AAAAAAAAAAAAAAAA
IIIIIIIIIIIIIIIIIIIIIIIIIIIIII22222222222221111AAAAAAAAAAAAAAAAA
IIIIIIIIIIIIIIIIIIIIIIIIIIIII22222222222221111AAAAAAAAAAAAAAAAAA
IIIIIIIIIIIIIIIIIIIIIIIIIIII22222222222221111AAAAAAAAAAAAAAAAAAA
IIIIIIIIIIIIIIIIIIIIIIIIIII22222222222221111AAAAAAAAAAAAAAAAAAAA
IIIIIIIIIIIIIIIIIIIIIIIIII22222222222221111AAAAAAAAAAAAAAAAAAAAA
IIIIIIIIIIIIIIIIIIIIIIIII22222222222221111AAAAAAAAAAAAAAAAAAAAAA
IIIIIIIIIIIIIIIIIIIIIIII22222222222221111AAAAAAAAAAAAAAAAAAAAAAA
IIIIIIIIIIIIIIIIIIIIIII22222222222221111AAAAAAAAAAAAAAAAAAAAAAAA
IIIIIIIIIIIIIIIIIIIIII22222222222221111AAAAAAAAAAAAAAAAAAAAAAAAA
IIIIIIIIIIIIIIIIIIIII22222222222221111AAAAAAAAAAAAAAAAAAAAAAAAAA
IIIIIIIIIIIIIIIIIIII22222222222221111AAAAAAAAAAAAAAAAAAAAAAAAAAA
IIIIIIIIIIIIIIIIIII22222222222221111AAAAAAAAAAAAAAAAAAAAAAAAAAAA
IIIIIIIIIIIIIIIIII22222222222221111AAAAAAAAAAAAAAAAAAAAAAAAAAAAA
IIIIIIIIIIIIIIIII22222222222221111AAAAAAAAAAAAAAAAAAAAAAAAAAAAAA
IIIIIIIIIIIIIIII22222222222221111AAAAAAAAAAAAAAAAAAAAAAAAAAAAAAA
IIIIIIIIIIIIIII22222222222221111AAAAAAAAAAAAAAAAAAAAAAAAAAAAAAAA
IIIIIIIIIIIIII22222222222221111AAAAAAAAAAAAAAAAAAAAAAAAAAAAAAAAA
IIIIIIIIIIIII22222222222221111AAAAAAAAAAAAAAAAAAAAAAAAAAAAAAAAAA
IIIIIIIIIIII22222222222221111AAAAAAAAAAAAAAAAAAAAAAAAAAAAAAAAAAA
IIIIIIIIIII22222222222221111AAAAAAAAAAAAAAAAAAAAAAAAAAAAAAAAAAAA
IIIIIIIIII22222222222221111AAAAAAAAAAAAAAAAAAAAAAAAAAAAAAAAAAAAA
IIIIIIIII22222222222221111AAAAAAAAAAAAAAAAAAAAAAAAAAAAAAAAAAAAAA
IIIIIIII22222222222221111AAAAAAAAAAAAAAAAAAAAAAAAAAAAAAAAAAAAAAA
IIIIIII22222222222221111AAAAAAAAAAAAAAAAAAAAAAAAAAAAAAAAAAAAAAAA
IIIIII22222222222221111AAAAAAAAAAAAAAAAAAAAAAAAAAAAAAAAAAAAAAAAA
IIIII22222222222221111AAAAAAAAAAAAAAAAAAAAAAAAAAAAAAAAAAAAAAAAAA
IIII22222222222221111AAAAAAAAAAAAAAAAAAAAAAAAAAAAAAAAAAAAAAAAAAA
III22222222222221111AAAAAAAAAAAAAAAAAAAAAAAAAAAAAAAAAAAAAAAAAAAA
II22222222222221111AAAAAAAAAAAAAAAAAAAAAAAAAAAAAAAAAAAAAAAAAAAAA
I22222222222221111AAAAAAAAAAAAAAAAAAAAAAAAAAAAAAAAAAAAAAAAAAAAAA
22222222222221111AAAAAAAAAAAAAAAAAAAAAAAAAAAAAAAAAAAAAAAAAAAAAAA
2222222222221111AAAAAAAAAAAAAAAAAAAAAAAAAAAAAAAAAAAAAAAAAAAAAAAA
222222222221111AAAAAAAAAAAAAAAAAAAAAAAAAAAAAAAAAAAAAAAAAAAAAAAAA
22222222221111AAAAAAAAAAAAAAAAAAAAAAAAAAAAAAAAAAAAAAAAAAAAAAAAAA
2222222221111AAAAAAAAAAAAAAAAAAAAAAAAAAAAAAAAAAAAAAAAAAAAAAAAAAA
222222221111AAAAAAAAAAAAAAAAAAAAAAAAAAAAAAAAAAAAAAAAAAAAAAAAAAAA
22222221111AAAAAAAAAAAAAAAAAAAAAAAAAAAAAAAAAAAAAAAAAAAAAAAAAAAAA
2222221111AAAAAAAAAAAAAAAAAAAAAAAAAAAAAAAAAAAAAAAAAAAAAAAAAAAAAA
222221111AAAAAAAAAAAAAAAAAAAAAAAAAAAAAAAAAAAAAAAAAAAAAAAAAAAAAAA
22221111AAAAAAAAAAAAAAAAAAAAAAAAAAAAAAAAAAAAAAAAAAAAAAAAAAAAAAAA
2221111AAAAAAAAAAAAAAAAAAAAAAAAAAAAAAAAAAAAAAAAAAAAAAAAAAAAAAAAA
221111AAAAAAAAAAAAAAAAAAAAAAAAAAAAAAAAAAAAAAAAAAAAAAAAAAAAAAAAAA
21111AAAAAAAAAAAAAAAAAAAAAAAAAAAAAAAAAAAAAAAAAAAAAAAAAAAAAAAAAAA
1111AAAAAAAAAAAAAAAAAAAAAAAAAAAAAAAAAAAAAAAAAAAAAAAAAAAAAAAAAAAA
111AAAAAAAAAAAAAAAAAAAAAAAAAAAAAAAAAAAAAAAAAAAAAAAAAAAAAAAAAAAAA
11AAAAAAAAAAAAAAAAAAAAAAAAAAAAAAAAAAAAAAAAAAAAAAAAAAAAAAAAAAAAAA
1AAAAAAAAAAAAAAAAAAAAAAAAAAAAAAAAAAAAAAAAAAAAAAAAAAAAAAAAAAAAAAA
AAAAAAAAAAAAAAAAAAAAAAAAAAAAAAAAAAAAAAAAAAAAAAAAAAAAAAAAAAAAAAAA
IIIIIIIIIIIIIIIIIIIIIIIIIIIIIIIIIIIIIIIIIII1II1IIIIII1IIIIIIIIIA
IIIIIIIIIIIIIIIIIIIIIIIIIIIII2IIIIII2IIIIII1II1IIIIII1IIIIIIIIIA
IIIIIIIIIIIIIIIIIIIIIIIIIIII22IIIII22IIIII11I11IIIII11IIIIIIIIAA
IIIIIIIIIIIIIIIIIIIIIIIIIII222IIII222IIII111111IIII111IIIIIIIAAA
IIIIIIIIIIIIIIIIIIIIIIIIII2222III2222III1111111III1111IIIIIIAAAA
IIIIIIIIIIIIIIIIIIIIIIIIII2222III2222II11111111II11111IIIIIAAAAA
IIIIIIIIIIIIIIIIIIIIIIIIII2222III2222II11111111I111111IIIIAAAAAA
IIIIIIIIIIIIIIIIIIIIIIIIII2222III2222II111111111111111IIIAAAAAAA
IIIIIIIIIIIIIIIIIIIIIIIIII2222III22221I111111111111111IIIAAAAAAA
IIIIIIIIIIIIIIIIIIIIIIIIII2222III22211I111111111111111IIAAAAAAAA
IIIIIIIIIIIIIIIIIIIIII2III2222III22211I111111111111111IIAAAAAAAA
IIIIIIIIIIIIIIIIIIIIII2III2222III22211I111111111111111IAAAAAAAAA
IIIIIIIIIIIIIIIIIIIIII2III2222III221111111111111111111IAAAAAAAAA
IIIIIIIIIIIIIIIIIIIIII2III2222III211111111111111111111AAAAAAAAAA
IIIIIIIIIIIIIIIIIIII2I2III2222III211111111111111111111AAAAAAAAAA
IIIIIIIIIIIIIIIIIII22I2III2222III11111111111111111111AAAAAAAAAAA
IIIIIIIIIIIIIIIIII222I2II22222II11111111111111111111AAAAAAAAAAAA
IIIIIIIIIIIIIIIII2222I2I222222I11111111111111111111AAAAAAAAAAAAA
IIIIIIIIIIIIIIII22222I2222222211111111111111111111AAAAAAAAAAAAAA
IIIIIIIIIIIIIII222222I222222211111111111111111111AAAAAAAAAAAAAAA
IIIIIIIIIIIIII2222222222222211111111111111111111AAAAAAAAAAAAAAAA
IIIIIIIIIIIII2222222222222211111111111111111111AAAAAAAAAAAAAAAAA
IIIIIIIIIIII2222222222222211111111111111111111AAAAAAAAAAAAAAAAAA
IIIIIIIIIII2222222222222211111111111111111111AAAAAAAAAAAAAAAAAAA
IIIIIIIIII2222222222222211111111111111111111AAAAAAAAAAAAAAAAAAAA
IIIIIIIII2222222222222211111111111111111111AAAAAAAAAAAAAAAAAAAAA
IIIIIIII2222222222222211111111111111111111AAAAAAAAAAAAAAAAAAAAAA
IIIIIII2222222222222211111111111111111111AAAAAAAAAAAAAAAAAAAAAAA
IIIIII2222222222222211111111111111111111AAAAAAAAAAAAAAAAAAAAAAAA
IIIIII222222222222211111111111111111111AAAAAAAAAAAAAAAAAAAAAAAAA
IIIII2222222222222211111111111111111111AAAAAAAAAAAAAAAAAAAAAAAAA
IIII2222222222222211111111111111111111AAAAAAAAAAAAAAAAAAAAAAAAAA
III2222222222222211111111111111111111AAAAAAAAAAAAAAAAAAAAAAAAAAA
II2222222222222211111111111111111111AAAAAAAAAAAAAAAAAAAAAAAAAAAA
I2222222222222211111111111111111111AAAAAAAAAAAAAAAAAAAAAAAAAAAAA
2222222222222211111111111111111111AAAAAAAAAAAAAAAAAAAAAAAAAAAAAA
222222222222211111111111111111111AAAAAAAAAAAAAAAAAAAAAAAAAAAAAAA
22222222222211111111111111111111AAAAAAAAAAAAAAAAAAAAAAAAAAAAAAAA
2222222222211111111111111111111AAAAAAAAAAAAAAAAAAAAAAAAAAAAAAAAA
222222222211111111111111111111AAAAAAAAAAAAAAAAAAAAAAAAAAAAAAAAAA
22222222211111111111111111111AAAAAAAAAAAAAAAAAAAAAAAAAAAAAAAAAAA
2222222211111111111111111111AAAAAAAAAAAAAAAAAAAAAAAAAAAAAAAAAAAA
222222211111111111111111111AAAAAAAAAAAAAAAAAAAAAAAAAAAAAAAAAAAAA
22222211111111111111111111AAAAAAAAAAAAAAAAAAAAAAAAAAAAAAAAAAAAAA
2222211111111111111111111AAAAAAAAAAAAAAAAAAAAAAAAAAAAAAAAAAAAAAA
222211111111111111111111AAAAAAAAAAAAAAAAAAAAAAAAAAAAAAAAAAAAAAAA
22211111111111111111111AAAAAAAAAAAAAAAAAAAAAAAAAAAAAAAAAAAAAAAAA
2211111111111111111111AAAAAAAAAAAAAAAAAAAAAAAAAAAAAAAAAAAAAAAAAA
211111111111111111111AAAAAAAAAAAAAAAAAAAAAAAAAAAAAAAAAAAAAAAAAAA
11111111111111111111AAAAAAAAAAAAAAAAAAAAAAAAAAAAAAAAAAAAAAAAAAAA
1111111111111111111AAAAAAAAAAAAAAAAAAAAAAAAAAAAAAAAAAAAAAAAAAAAA
111111111111111111AAAAAAAAAAAAAAAAAAAAAAAAAAAAAAAAAAAAAAAAAAAAAA
11111111111111111AAAAAAAAAAAAAAAAAAAAAAAAAAAAAAAAAAAAAAAAAAAAAAA
1111111111111111AAAAAAAAAAAAAAAAAAAAAAAAAAAAAAAAAAAAAAAAAAAAAAAA
111111111111111AAAAAAAAAAAAAAAAAAAAAAAAAAAAAAAAAAAAAAAAAAAAAAAAA
11111111111111AAAAAAAAAAAAAAAAAAAAAAAAAAAAAAAAAAAAAAAAAAAAAAAAAA
1111111111111AAAAAAAAAAAAAAAAAAAAAAAAAAAAAAAAAAAAAAAAAAAAAAAAAAA
111111111111AAAAAAAAAAAAAAAAAAAAAAAAAAAAAAAAAAAAAAAAAAAAAAAAAAAA
11111111111AAAAAAAAAAAAAAAAAAAAAAAAAAAAAAAAAAAAAAAAAAAAAAAAAAAAA
1111111111AAAAAAAAAAAAAAAAAAAAAAAAAAAAAAAAAAAAAAAAAAAAAAAAAAAAAA
111111111AAAAAAAAAAAAAAAAAAAAAAAAAAAAAAAAAAAAAAAAAAAAAAAAAAAAAAA
11111111AAAAAAAAAAAAAAAAAAAAAAAAAAAAAAAAAAAAAAAAAAAAAAAAAAAAAAAA
1111111AAAAAAAAAAAAAAAAAAAAAAAAAAAAAAAAAAAAAAAAAAAAAAAAAAAAAAAAA
111111AAAAAAAAAAAAAAAAAAAAAAAAAAAAAAAAAAAAAAAAAAAAAAAAAAAAAAAAAA
11111AAAAAAAAAAAAAAAAAAAAAAAAAAAAAAAAAAAAAAAAAAAAAAAAAAAAAAAAAAA
1111AAAAAAAAAAAAAAAAAAAAAAAAAAAAAAAAAAAAAAAAAAAAAAAAAAAAAAAAAAAA
111AAAAAAAAAAAAAAAAAAAAAAAAAAAAAAAAAAAAAAAAAAAAAAAAAAAAAAAAAAAAA
11AAAAAAAAAAAAAAAAAAAAAAAAAAAAAAAAAAAAAAAAAAAAAAAAAAAAAAAAAAAAAA
1AAAAAAAAAAAAAAAAAAAAAAAAAAAAAAAAAAAAAAAAAAAAAAAAAAAAAAAAAAAAAAA
AAAAAAAAAAAAAAAAAAAAAAAAAAAAAAAAAAAAAAAAAAAAAAAAAAAAAAAAAAAAAAAA
IIIIIIIIIIIIIIIIIIIIIIIIIIIIIIIIIIIIIIIIIIIIIIIIIIIIIIIIIIII1IIA
IIIIIIIIIIIIIIIIIIIIIIIIIIIIIIIIIIII11II1II1IIIIII1II1IIIIII1IIA
IIIIIIIIIIIIIIIIIIIIIIIIIIIIIIIIIII111I11I11IIIII11I11IIIII11IAA
IIIIIIIIIIIIIIIIIIIIIIIIIIIIIIIIII1111111111IIII111111IIII111AAA
IIIIIIIIIIIIIIIIIIIIIIIIIIIIIIIII11111111111III1111111III111AAAA
IIIIIIIIIIIIIIIIIIIIIIIIIIIIIIII111111111111II11111111II111AAAAA
IIIIIIIIIIIIIIIIIIIIIIIIIIIIIIII111111111111II11111111I111AAAAAA
IIIIIIIIIIIIIIIIIIIIIIIIIIIIIIII111111111111I111111111I111AAAAAA
IIIIIIIIIIIIIIIIIIIIIIIIIIIIIIII111111111111I111111111111AAAAAAA
IIIIIIIIIIIIIIIIIIIIIIIIIIIIII111111111111111111111111111AAAAAAA
IIIIIIIIIIIIIIIIIIIIIIIIIIIII111111111111111111111111111AAAAAAAA
IIIIIIIIIIIIIIIIIIIIIIIIIIII111111111111111111111111111AAAAAAAAA
IIIIIIIIIIIIIIIIIIIIIIIIIII111111111111111111111111111AAAAAAAAAA
IIIIIIIIIIIIIIIIIIIIIIIIII111111111111111111111111111AAAAAAAAAAA
IIIIIIIIIIIIIIIIIIIIIIIII111111111111111111111111111AAAAAAAAAAAA
IIIIIIIIIIIIIIIIIIIIIIII111111111111111111111111111AAAAAAAAAAAAA
IIIIIIIIIIIIIIIIIIIIIII111111111111111111111111111AAAAAAAAAAAAAA
IIIIIIIIIIIIIIIIIIIIII111111111111111111111111111AAAAAAAAAAAAAAA
IIIIIIIIIIIIIIIIIIIII111111111111111111111111111AAAAAAAAAAAAAAAA
IIIIIIIIIIIIIIIIIIII111111111111111111111111111AAAAAAAAAAAAAAAAA
IIIIIIIIIIIIIIIIIII111111111111111111111111111AAAAAAAAAAAAAAAAAA
IIIIIIIIIIIIIIIIII111111111111111111111111111AAAAAAAAAAAAAAAAAAA
IIIIIIIIIIIIIIIII111111111111111111111111111AAAAAAAAAAAAAAAAAAAA
IIIIIIIIIIIIIIII111111111111111111111111111AAAAAAAAAAAAAAAAAAAAA
IIIIIIIIIIIIIII111111111111111111111111111AAAAAAAAAAAAAAAAAAAAAA
IIIIIIIIIIIIII111111111111111111111111111AAAAAAAAAAAAAAAAAAAAAAA
IIIIIIIIIIIII111111111111111111111111111AAAAAAAAAAAAAAAAAAAAAAAA
IIIIIIIIIIII111111111111111111111111111AAAAAAAAAAAAAAAAAAAAAAAAA
IIIIIIIIIII111111111111111111111111111AAAAAAAAAAAAAAAAAAAAAAAAAA
IIIIIIIIII111111111111111111111111111AAAAAAAAAAAAAAAAAAAAAAAAAAA
IIIIIIIII111111111111111111111111111AAAAAAAAAAAAAAAAAAAAAAAAAAAA
IIIIIIII111111111111111111111111111AAAAAAAAAAAAAAAAAAAAAAAAAAAAA
IIIIIII111111111111111111111111111AAAAAAAAAAAAAAAAAAAAAAAAAAAAAA
IIIIII111111111111111111111111111AAAAAAAAAAAAAAAAAAAAAAAAAAAAAAA
IIIII111111111111111111111111111AAAAAAAAAAAAAAAAAAAAAAAAAAAAAAAA
IIII111111111111111111111111111AAAAAAAAAAAAAAAAAAAAAAAAAAAAAAAAA
III111111111111111111111111111AAAAAAAAAAAAAAAAAAAAAAAAAAAAAAAAAA
II111111111111111111111111111AAAAAAAAAAAAAAAAAAAAAAAAAAAAAAAAAAA
I111111111111111111111111111AAAAAAAAAAAAAAAAAAAAAAAAAAAAAAAAAAAA
111111111111111111111111111AAAAAAAAAAAAAAAAAAAAAAAAAAAAAAAAAAAAA
11111111111111111111111111AAAAAAAAAAAAAAAAAAAAAAAAAAAAAAAAAAAAAA
1111111111111111111111111AAAAAAAAAAAAAAAAAAAAAAAAAAAAAAAAAAAAAAA
111111111111111111111111AAAAAAAAAAAAAAAAAAAAAAAAAAAAAAAAAAAAAAAA
11111111111111111111111AAAAAAAAAAAAAAAAAAAAAAAAAAAAAAAAAAAAAAAAA
1111111111111111111111AAAAAAAAAAAAAAAAAAAAAAAAAAAAAAAAAAAAAAAAAA
111111111111111111111AAAAAAAAAAAAAAAAAAAAAAAAAAAAAAAAAAAAAAAAAAA
11111111111111111111AAAAAAAAAAAAAAAAAAAAAAAAAAAAAAAAAAAAAAAAAAAA
1111111111111111111AAAAAAAAAAAAAAAAAAAAAAAAAAAAAAAAAAAAAAAAAAAAA
111111111111111111AAAAAAAAAAAAAAAAAAAAAAAAAAAAAAAAAAAAAAAAAAAAAA
11111111111111111AAAAAAAAAAAAAAAAAAAAAAAAAAAAAAAAAAAAAAAAAAAAAAA
1111111111111111AAAAAAAAAAAAAAAAAAAAAAAAAAAAAAAAAAAAAAAAAAAAAAAA
111111111111111AAAAAAAAAAAAAAAAAAAAAAAAAAAAAAAAAAAAAAAAAAAAAAAAA
11111111111111AAAAAAAAAAAAAAAAAAAAAAAAAAAAAAAAAAAAAAAAAAAAAAAAAA
1111111111111AAAAAAAAAAAAAAAAAAAAAAAAAAAAAAAAAAAAAAAAAAAAAAAAAAA
111111111111AAAAAAAAAAAAAAAAAAAAAAAAAAAAAAAAAAAAAAAAAAAAAAAAAAAA
11111111111AAAAAAAAAAAAAAAAAAAAAAAAAAAAAAAAAAAAAAAAAAAAAAAAAAAAA
1111111111AAAAAAAAAAAAAAAAAAAAAAAAAAAAAAAAAAAAAAAAAAAAAAAAAAAAAA
111111111AAAAAAAAAAAAAAAAAAAAAAAAAAAAAAAAAAAAAAAAAAAAAAAAAAAAAAA
11111111AAAAAAAAAAAAAAAAAAAAAAAAAAAAAAAAAAAAAAAAAAAAAAAAAAAAAAAA
1111111AAAAAAAAAAAAAAAAAAAAAAAAAAAAAAAAAAAAAAAAAAAAAAAAAAAAAAAAA
111111AAAAAAAAAAAAAAAAAAAAAAAAAAAAAAAAAAAAAAAAAAAAAAAAAAAAAAAAAA
11111AAAAAAAAAAAAAAAAAAAAAAAAAAAAAAAAAAAAAAAAAAAAAAAAAAAAAAAAAAA
1111AAAAAAAAAAAAAAAAAAAAAAAAAAAAAAAAAAAAAAAAAAAAAAAAAAAAAAAAAAAA
111AAAAAAAAAAAAAAAAAAAAAAAAAAAAAAAAAAAAAAAAAAAAAAAAAAAAAAAAAAAAA
11AAAAAAAAAAAAAAAAAAAAAAAAAAAAAAAAAAAAAAAAAAAAAAAAAAAAAAAAAAAAAA
1AAAAAAAAAAAAAAAAAAAAAAAAAAAAAAAAAAAAAAAAAAAAAAAAAAAAAAAAAAAAAAA
AAAAAAAAAAAAAAAAAAAAAAAAAAAAAAAAAAAAAAAAAAAAAAAAAAAAAAAAAAAAAAAA
IIIIIIIIIIIIIIIIIIIIIIIIIIIIIIIIIIIIIIIIII1IIIIIIIIII1IIIIII1IIA
IIIIIIIIIIIIIIIIIIIIIIIIIIIIIIII1IIIIII1II1IIIIIII1II1IIIIII1IIA
IIIIIIIIIIIIIIIIIIIIIIIIIIIIIIII1IIIII11I11IIIIIII1I11IIIII11IAA
IIIIIIIIIIIIIIIIIIIIIIIIIIIIIII11IIIII11I11IIIIII11I11IIIII11IAA
IIIIIIIIIIIIIIIIIIIIIIIIIIIIIII11IIIII11111IIIIII11111IIII111AAA
IIIIIIIIIIIIIIIIIIIIIIIIIII1II111IIII111111IIIII111111IIII111AAA
IIIIIIIIIIIIIIIIIIIIIIIIII11I1111III1111111IIII1111111III111AAAA
IIIIIIIIIIIIIIIIIIIIIIIIII11I1111III1111111IIII1111111II111AAAAA
IIIIIIIIIIIIIIIIIIIIIIIIII11I1111II11111111IIII1111111II111AAAAA
IIIIIIIIIIIIIIIIIIIIIIIIII11I1111II11111111IIII1111111I111AAAAAA
IIIIIIIIIIIIIIIIIIIIIIIIII11I1111I111111111IIII1111111I111AAAAAA
IIIIIIIIIIIIIIIIIIIIIIIIII11I1111I111111111IIII1111111111AAAAAAA
IIIIIIIIIIIIIIIIIIIIIIIIII11I11111111111111I1II1111111111AAAAAAA
IIIIIIIIIIIIIIIIIIIIIII1II11I11111111111111I1II1111111111AAAAAAA
IIIIIIIIIIIIIIIIIIIIIII1II11I11111111111111I1I1111111111AAAAAAAA
IIIIIIIIIIIIIIIIIIIIII11I111I1111111111111111I1111111111AAAAAAAA
IIIIIIIIIIIIIIIIIIIII1111111I11111111111111111111111111AAAAAAAAA
IIIIIIIIIIIIIIIIIIII11111111I1111111111111111111111111AAAAAAAAAA
IIIIIIIIIIIIIIIIIII111111111I111111111111111111111111AAAAAAAAAAA
IIIIIIIIIIIIIIIIII1111111111111111111111111111111111AAAAAAAAAAAA
IIIIIIIIIIIIIIIII1111111111111111111111111111111111AAAAAAAAAAAAA
IIIIIIIIIIIIIIII1111111111111111111111111111111111AAAAAAAAAAAAAA
IIIIIIIIIIIIIII1111111111111111111111111111111111AAAAAAAAAAAAAAA
IIIIIIIIIIIIII1111111111111111111111111111111111AAAAAAAAAAAAAAAA
IIIIIIIIIIIII1111111111111111111111111111111111AAAAAAAAAAAAAAAAA
IIIIIIIIIIII1111111111111111111111111111111111AAAAAAAAAAAAAAAAAA
IIIIIIIIIII1111111111111111111111111111111111AAAAAAAAAAAAAAAAAAA
IIIIIIIIII1111111111111111111111111111111111AAAAAAAAAAAAAAAAAAAA
IIIIIIIII1111111111111111111111111111111111AAAAAAAAAAAAAAAAAAAAA
IIIIIIII1111111111111111111111111111111111AAAAAAAAAAAAAAAAAAAAAA
IIIIIII1111111111111111111111111111111111AAAAAAAAAAAAAAAAAAAAAAA
IIIIII1111111111111111111111111111111111AAAAAAAAAAAAAAAAAAAAAAAA
IIIII1111111111111111111111111111111111AAAAAAAAAAAAAAAAAAAAAAAAA
IIII1111111111111111111111111111111111AAAAAAAAAAAAAAAAAAAAAAAAAA
III1111111111111111111111111111111111AAAAAAAAAAAAAAAAAAAAAAAAAAA
II1111111111111111111111111111111111AAAAAAAAAAAAAAAAAAAAAAAAAAAA
I1111111111111111111111111111111111AAAAAAAAAAAAAAAAAAAAAAAAAAAAA
1111111111111111111111111111111111AAAAAAAAAAAAAAAAAAAAAAAAAAAAAA
111111111111111111111111111111111AAAAAAAAAAAAAAAAAAAAAAAAAAAAAAA
11111111111111111111111111111111AAAAAAAAAAAAAAAAAAAAAAAAAAAAAAAA
1111111111111111111111111111111AAAAAAAAAAAAAAAAAAAAAAAAAAAAAAAAA
111111111111111111111111111111AAAAAAAAAAAAAAAAAAAAAAAAAAAAAAAAAA
11111111111111111111111111111AAAAAAAAAAAAAAAAAAAAAAAAAAAAAAAAAAA
1111111111111111111111111111AAAAAAAAAAAAAAAAAAAAAAAAAAAAAAAAAAAA
111111111111111111111111111AAAAAAAAAAAAAAAAAAAAAAAAAAAAAAAAAAAAA
11111111111111111111111111AAAAAAAAAAAAAAAAAAAAAAAAAAAAAAAAAAAAAA
1111111111111111111111111AAAAAAAAAAAAAAAAAAAAAAAAAAAAAAAAAAAAAAA
111111111111111111111111AAAAAAAAAAAAAAAAAAAAAAAAAAAAAAAAAAAAAAAA
11111111111111111111111AAAAAAAAAAAAAAAAAAAAAAAAAAAAAAAAAAAAAAAAA
1111111111111111111111AAAAAAAAAAAAAAAAAAAAAAAAAAAAAAAAAAAAAAAAAA
111111111111111111111AAAAAAAAAAAAAAAAAAAAAAAAAAAAAAAAAAAAAAAAAAA
11111111111111111111AAAAAAAAAAAAAAAAAAAAAAAAAAAAAAAAAAAAAAAAAAAA
1111111111111111111AAAAAAAAAAAAAAAAAAAAAAAAAAAAAAAAAAAAAAAAAAAAA
111111111111111111AAAAAAAAAAAAAAAAAAAAAAAAAAAAAAAAAAAAAAAAAAAAAA
11111111111111111AAAAAAAAAAAAAAAAAAAAAAAAAAAAAAAAAAAAAAAAAAAAAAA
1111111111111111AAAAAAAAAAAAAAAAAAAAAAAAAAAAAAAAAAAAAAAAAAAAAAAA
111111111111111AAAAAAAAAAAAAAAAAAAAAAAAAAAAAAAAAAAAAAAAAAAAAAAAA
11111111111111AAAAAAAAAAAAAAAAAAAAAAAAAAAAAAAAAAAAAAAAAAAAAAAAAA
1111111111111AAAAAAAAAAAAAAAAAAAAAAAAAAAAAAAAAAAAAAAAAAAAAAAAAAA
111111111111AAAAAAAAAAAAAAAAAAAAAAAAAAAAAAAAAAAAAAAAAAAAAAAAAAAA
11111111111AAAAAAAAAAAAAAAAAAAAAAAAAAAAAAAAAAAAAAAAAAAAAAAAAAAAA
1111111111AAAAAAAAAAAAAAAAAAAAAAAAAAAAAAAAAAAAAAAAAAAAAAAAAAAAAA
111111111AAAAAAAAAAAAAAAAAAAAAAAAAAAAAAAAAAAAAAAAAAAAAAAAAAAAAAA
11111111AAAAAAAAAAAAAAAAAAAAAAAAAAAAAAAAAAAAAAAAAAAAAAAAAAAAAAAA
1111111AAAAAAAAAAAAAAAAAAAAAAAAAAAAAAAAAAAAAAAAAAAAAAAAAAAAAAAAA
111111AAAAAAAAAAAAAAAAAAAAAAAAAAAAAAAAAAAAAAAAAAAAAAAAAAAAAAAAAA
11111AAAAAAAAAAAAAAAAAAAAAAAAAAAAAAAAAAAAAAAAAAAAAAAAAAAAAAAAAAA
1111AAAAAAAAAAAAAAAAAAAAAAAAAAAAAAAAAAAAAAAAAAAAAAAAAAAAAAAAAAAA
111AAAAAAAAAAAAAAAAAAAAAAAAAAAAAAAAAAAAAAAAAAAAAAAAAAAAAAAAAAAAA
11AAAAAAAAAAAAAAAAAAAAAAAAAAAAAAAAAAAAAAAAAAAAAAAAAAAAAAAAAAAAAA
1AAAAAAAAAAAAAAAAAAAAAAAAAAAAAAAAAAAAAAAAAAAAAAAAAAAAAAAAAAAAAAA
AAAAAAAAAAAAAAAAAAAAAAAAAAAAAAAAAAAAAAAAAAAAAAAAAAAAAAAAAAAAAAAA
IIIIIIIIIIIIIIIIIIIIIIIIIIIIIIIIIIIIIIIIIIIIIIIIIIIIIIIIIIIIIIIA
IIIIIIIIIIIIIIIIIIIIIIIIIIIIIIIIIIIIIIIIIIIIIIIIIIIII1IIIIII1IIA
IIIIIIIIIIIIIIIIIIIIIIIIIIIIIIIIIIIIIIIIIIIIIIIII1II11IIIII11IAA
IIIIIIIIIIIIIIIIIIIIIIIIIIIIIIIIIII1IIIIII1IIIIII1II11IIIII11IAA
IIIIIIIIIIIIIIIIIIIIIIIIIIIIIIIIIII1IIIIII1IIIIII1I111IIII111AAA
IIIIIIIIIIIIIIIIIIIIIIIIIII1IIIIII11IIIII11IIIII11I111IIII111AAA
IIIIIIIIIIIIIIIIIIIIIIIIIII1IIIIII11IIII111IIII1111111III111AAAA
IIIIIIIIIIIIIIIIIIIIIIIIIII1IIIII111IIII111IIII1111111III111AAAA
IIIIIIIIIIIIIIIIIIIIIIIIIII1IIIII111IIII111IIII1111111II111AAAAA
IIIIIIIIIIIIIIIIIIIIIIIIIII1IIIII111IIII111III11111111II111AAAAA
IIIIIIIIIIIIIIIIIIIIIIII1II1III11111II1I111II111111111I111AAAAAA
IIIIIIIIIIIIIIIIIIIIIII11II1II111111I11I111I1111111111111AAAAAAA
IIIIIIIIIIIIIIIIIIIIIII11II1II111111I11I1111111111111111AAAAAAAA
IIIIIIIIIIIIIIIIIIIIII111II1I1111111111I1111111111111111AAAAAAAA
IIIIIIIIIIIIIIIIIIIII1111II111111111111I111111111111111AAAAAAAAA
IIIIIIIIIIIIIIIIIIII11111II111111111111I11111111111111AAAAAAAAAA
IIIIIIIIIIIIIIIIIII111111I1111111111111I1111111111111AAAAAAAAAAA
IIIIIIIIIIIIIIIIII1111111111111111111111111111111111AAAAAAAAAAAA
IIIIIIIIIIIIIIIII1111111111111111111111111111111111AAAAAAAAAAAAA
IIIIIIIIIIIIIIII1111111111111111111111111111111111AAAAAAAAAAAAAA
IIIIIIIIIIIIIII1111111111111111111111111111111111AAAAAAAAAAAAAAA
IIIIIIIIIIIIII1111111111111111111111111111111111AAAAAAAAAAAAAAAA
IIIIIIIIIIIII1111111111111111111111111111111111AAAAAAAAAAAAAAAAA
IIIIIIIIIIII1111111111111111111111111111111111AAAAAAAAAAAAAAAAAA
IIIIIIIIIII1111111111111111111111111111111111AAAAAAAAAAAAAAAAAAA
IIIIIIIIII1111111111111111111111111111111111AAAAAAAAAAAAAAAAAAAA
IIIIIIIII1111111111111111111111111111111111AAAAAAAAAAAAAAAAAAAAA
IIIIIIII1111111111111111111111111111111111AAAAAAAAAAAAAAAAAAAAAA
IIIIIII1111111111111111111111111111111111AAAAAAAAAAAAAAAAAAAAAAA
IIIIII1111111111111111111111111111111111AAAAAAAAAAAAAAAAAAAAAAAA
IIIII1111111111111111111111111111111111AAAAAAAAAAAAAAAAAAAAAAAAA
IIII1111111111111111111111111111111111AAAAAAAAAAAAAAAAAAAAAAAAAA
III1111111111111111111111111111111111AAAAAAAAAAAAAAAAAAAAAAAAAAA
II1111111111111111111111111111111111AAAAAAAAAAAAAAAAAAAAAAAAAAAA
I1111111111111111111111111111111111AAAAAAAAAAAAAAAAAAAAAAAAAAAAA
1111111111111111111111111111111111AAAAAAAAAAAAAAAAAAAAAAAAAAAAAA
111111111111111111111111111111111AAAAAAAAAAAAAAAAAAAAAAAAAAAAAAA
11111111111111111111111111111111AAAAAAAAAAAAAAAAAAAAAAAAAAAAAAAA
1111111111111111111111111111111AAAAAAAAAAAAAAAAAAAAAAAAAAAAAAAAA
111111111111111111111111111111AAAAAAAAAAAAAAAAAAAAAAAAAAAAAAAAAA
11111111111111111111111111111AAAAAAAAAAAAAAAAAAAAAAAAAAAAAAAAAAA
1111111111111111111111111111AAAAAAAAAAAAAAAAAAAAAAAAAAAAAAAAAAAA
111111111111111111111111111AAAAAAAAAAAAAAAAAAAAAAAAAAAAAAAAAAAAA
11111111111111111111111111AAAAAAAAAAAAAAAAAAAAAAAAAAAAAAAAAAAAAA
1111111111111111111111111AAAAAAAAAAAAAAAAAAAAAAAAAAAAAAAAAAAAAAA
111111111111111111111111AAAAAAAAAAAAAAAAAAAAAAAAAAAAAAAAAAAAAAAA
11111111111111111111111AAAAAAAAAAAAAAAAAAAAAAAAAAAAAAAAAAAAAAAAA
1111111111111111111111AAAAAAAAAAAAAAAAAAAAAAAAAAAAAAAAAAAAAAAAAA
111111111111111111111AAAAAAAAAAAAAAAAAAAAAAAAAAAAAAAAAAAAAAAAAAA
11111111111111111111AAAAAAAAAAAAAAAAAAAAAAAAAAAAAAAAAAAAAAAAAAAA
1111111111111111111AAAAAAAAAAAAAAAAAAAAAAAAAAAAAAAAAAAAAAAAAAAAA
111111111111111111AAAAAAAAAAAAAAAAAAAAAAAAAAAAAAAAAAAAAAAAAAAAAA
11111111111111111AAAAAAAAAAAAAAAAAAAAAAAAAAAAAAAAAAAAAAAAAAAAAAA
1111111111111111AAAAAAAAAAAAAAAAAAAAAAAAAAAAAAAAAAAAAAAAAAAAAAAA
111111111111111AAAAAAAAAAAAAAAAAAAAAAAAAAAAAAAAAAAAAAAAAAAAAAAAA
11111111111111AAAAAAAAAAAAAAAAAAAAAAAAAAAAAAAAAAAAAAAAAAAAAAAAAA
1111111111111AAAAAAAAAAAAAAAAAAAAAAAAAAAAAAAAAAAAAAAAAAAAAAAAAAA
111111111111AAAAAAAAAAAAAAAAAAAAAAAAAAAAAAAAAAAAAAAAAAAAAAAAAAAA
11111111111AAAAAAAAAAAAAAAAAAAAAAAAAAAAAAAAAAAAAAAAAAAAAAAAAAAAA
1111111111AAAAAAAAAAAAAAAAAAAAAAAAAAAAAAAAAAAAAAAAAAAAAAAAAAAAAA
111111111AAAAAAAAAAAAAAAAAAAAAAAAAAAAAAAAAAAAAAAAAAAAAAAAAAAAAAA
11111111AAAAAAAAAAAAAAAAAAAAAAAAAAAAAAAAAAAAAAAAAAAAAAAAAAAAAAAA
1111111AAAAAAAAAAAAAAAAAAAAAAAAAAAAAAAAAAAAAAAAAAAAAAAAAAAAAAAAA
111111AAAAAAAAAAAAAAAAAAAAAAAAAAAAAAAAAAAAAAAAAAAAAAAAAAAAAAAAAA
11111AAAAAAAAAAAAAAAAAAAAAAAAAAAAAAAAAAAAAAAAAAAAAAAAAAAAAAAAAAA
1111AAAAAAAAAAAAAAAAAAAAAAAAAAAAAAAAAAAAAAAAAAAAAAAAAAAAAAAAAAAA
111AAAAAAAAAAAAAAAAAAAAAAAAAAAAAAAAAAAAAAAAAAAAAAAAAAAAAAAAAAAAA
11AAAAAAAAAAAAAAAAAAAAAAAAAAAAAAAAAAAAAAAAAAAAAAAAAAAAAAAAAAAAAA
1AAAAAAAAAAAAAAAAAAAAAAAAAAAAAAAAAAAAAAAAAAAAAAAAAAAAAAAAAAAAAAA
AAAAAAAAAAAAAAAAAAAAAAAAAAAAAAAAAAAAAAAAAAAAAAAAAAAAAAAAAAAAAAAA
IIIIIIIIIIIIIIIIIIIIIIIIIIIIIIIIIIIIIIIIIIIIIIIIIIIIIIII2II1IIIA
IIIIIIIIIIIIIIIIIIIIIIIIIIIIIIIIIIIIIIIIIIIIIIIIIIIIIII22I11IIAA
IIIIIIIIIIIIIIIIIIIIIIIIIIIIIIIIIIIIIIIIIIIIIIIIIIIIII222111IAAA
IIIIIIIIIIIIIIIIIIIIIIIIIIIIIIIIIIIIIIIIIIIIIIIIIIIII2221111AAAA
IIIIIIIIIIIIIIIIIIIIIIIIIIIIIIIIIIIIIIIIIIIIIIIIIIII2221111AAAAA
IIIIIIIIIIIIIIIIIIIIIIIIIIIIIIIIIIIIIIIIIIIIIIIIIII2221111AAAAAA
IIIIIIIIIIIIIIIIIIIIIIIIIIIIIIIIIIIIIIIIIIIIIIIIII2221111AAAAAAA
IIIIIIIIIIIIIIIIIIIIIIIIIIIIIIIIIIIIIIIIIIIIIIIII2221111AAAAAAAA
IIIIIIIIIIIIIIIIIIIIIIIIIIIIIIIIIIIIIIIIIIIIIIII2221111AAAAAAAAA
IIIIIIIIIIIIIIIIIIIIIIIIIIIIIIIIIIIIIIIIIIIIIII2221111AAAAAAAAAA
IIIIIIIIIIIIIIIIIIIIIIIIIIIIIIIIIIIIIIIIIIIIII2221111AAAAAAAAAAA
IIIIIIIIIIIIIIIIIIIIIIIIIIIIIIIIIIIIIIIIIIIII2221111AAAAAAAAAAAA
IIIIIIIIIIIIIIIIIIIIIIIIIIIIIIIIIIIIIIIIIIII2221111AAAAAAAAAAAAA
IIIIIIIIIIIIIIIIIIIIIIIIIIIIIIIIIIIIIIIIIII2221111AAAAAAAAAAAAAA
IIIIIIIIIIIIIIIIIIIIIIIIIIIIIIIIIIIIIIIIII2221111AAAAAAAAAAAAAAA
IIIIIIIIIIIIIIIIIIIIIIIIIIIIIIIIIIIIIIIII2221111AAAAAAAAAAAAAAAA
IIIIIIIIIIIIIIIIIIIIIIIIIIIIIIIIIIIIIIII2221111AAAAAAAAAAAAAAAAA
IIIIIIIIIIIIIIIIIIIIIIIIIIIIIIIIIIIIIII2221111AAAAAAAAAAAAAAAAAA
IIIIIIIIIIIIIIIIIIIIIIIIIIIIIIIIIIIIII2221111AAAAAAAAAAAAAAAAAAA
IIIIIIIIIIIIIIIIIIIIIIIIIIIIIIIIIIIII2221111AAAAAAAAAAAAAAAAAAAA
IIIIIIIIIIIIIIIIIIIIIIIIIIIIIIIIIIII2221111AAAAAAAAAAAAAAAAAAAAA
IIIIIIIIIIIIIIIIIIIIIIIIIIIIIIIIIII2221111AAAAAAAAAAAAAAAAAAAAAA
IIIIIIIIIIIIIIIIIIIIIIIIIIIIIIIIII2221111AAAAAAAAAAAAAAAAAAAAAAA
IIIIIIIIIIIIIIIIIIIIIIIIIIIIIIIII2221111AAAAAAAAAAAAAAAAAAAAAAAA
IIIIIIIIIIIIIIIIIIIIIIIIIIIIIIII2221111AAAAAAAAAAAAAAAAAAAAAAAAA
IIIIIIIIIIIIIIIIIIIIIIIIIIIIIII2221111AAAAAAAAAAAAAAAAAAAAAAAAAA
IIIIIIIIIIIIIIIIIIIIIIIIIIIIII2221111AAAAAAAAAAAAAAAAAAAAAAAAAAA
IIIIIIIIIIIIIIIIIIIIIIIIIIIII2221111AAAAAAAAAAAAAAAAAAAAAAAAAAAA
IIIIIIIIIIIIIIIIIIIIIIIIIIII2221111AAAAAAAAAAAAAAAAAAAAAAAAAAAAA
IIIIIIIIIIIIIIIIIIIIIIIIIII2221111AAAAAAAAAAAAAAAAAAAAAAAAAAAAAA
IIIIIIIIIIIIIIIIIIIIIIIIII2221111AAAAAAAAAAAAAAAAAAAAAAAAAAAAAAA
IIIIIIIIIIIIIIIIIIIIIIIII2221111AAAAAAAAAAAAAAAAAAAAAAAAAAAAAAAA
IIIIIIIIIIIIIIIIIIIIIIII2221111AAAAAAAAAAAAAAAAAAAAAAAAAAAAAAAAA
IIIIIIIIIIIIIIIIIIIIIII2221111AAAAAAAAAAAAAAAAAAAAAAAAAAAAAAAAAA
IIIIIIIIIIIIIIIIIIIIII2221111AAAAAAAAAAAAAAAAAAAAAAAAAAAAAAAAAAA
IIIIIIIIIIIIIIIIIIIII2221111AAAAAAAAAAAAAAAAAAAAAAAAAAAAAAAAAAAA
IIIIIIIIIIIIIIIIIIII2221111AAAAAAAAAAAAAAAAAAAAAAAAAAAAAAAAAAAAA
IIIIIIIIIIIIIIIIIII2221111AAAAAAAAAAAAAAAAAAAAAAAAAAAAAAAAAAAAAA
IIIIIIIIIIIIIIIIII2221111AAAAAAAAAAAAAAAAAAAAAAAAAAAAAAAAAAAAAAA
IIIIIIIIIIIIIIIII2221111AAAAAAAAAAAAAAAAAAAAAAAAAAAAAAAAAAAAAAAA
IIIIIIIIIIIIIIII2221111AAAAAAAAAAAAAAAAAAAAAAAAAAAAAAAAAAAAAAAAA
IIIIIIIIIIIIIII2221111AAAAAAAAAAAAAAAAAAAAAAAAAAAAAAAAAAAAAAAAAA
IIIIIIIIIIIIII2221111AAAAAAAAAAAAAAAAAAAAAAAAAAAAAAAAAAAAAAAAAAA
IIIIIIIIIIIII2221111AAAAAAAAAAAAAAAAAAAAAAAAAAAAAAAAAAAAAAAAAAAA
IIIIIIIIIIII2221111AAAAAAAAAAAAAAAAAAAAAAAAAAAAAAAAAAAAAAAAAAAAA
IIIIIIIIIII2221111AAAAAAAAAAAAAAAAAAAAAAAAAAAAAAAAAAAAAAAAAAAAAA
IIIIIIIIII2221111AAAAAAAAAAAAAAAAAAAAAAAAAAAAAAAAAAAAAAAAAAAAAAA
IIIIIIIII2221111AAAAAAAAAAAAAAAAAAAAAAAAAAAAAAAAAAAAAAAAAAAAAAAA
IIIIIIII2221111AAAAAAAAAAAAAAAAAAAAAAAAAAAAAAAAAAAAAAAAAAAAAAAAA
IIIIIII2221111AAAAAAAAAAAAAAAAAAAAAAAAAAAAAAAAAAAAAAAAAAAAAAAAAA
IIIIII2221111AAAAAAAAAAAAAAAAAAAAAAAAAAAAAAAAAAAAAAAAAAAAAAAAAAA
IIIII2221111AAAAAAAAAAAAAAAAAAAAAAAAAAAAAAAAAAAAAAAAAAAAAAAAAAAA
IIII2221111AAAAAAAAAAAAAAAAAAAAAAAAAAAAAAAAAAAAAAAAAAAAAAAAAAAAA
III2221111AAAAAAAAAAAAAAAAAAAAAAAAAAAAAAAAAAAAAAAAAAAAAAAAAAAAAA
II2221111AAAAAAAAAAAAAAAAAAAAAAAAAAAAAAAAAAAAAAAAAAAAAAAAAAAAAAA
I2221111AAAAAAAAAAAAAAAAAAAAAAAAAAAAAAAAAAAAAAAAAAAAAAAAAAAAAAAA
2221111AAAAAAAAAAAAAAAAAAAAAAAAAAAAAAAAAAAAAAAAAAAAAAAAAAAAAAAAA
221111AAAAAAAAAAAAAAAAAAAAAAAAAAAAAAAAAAAAAAAAAAAAAAAAAAAAAAAAAA
21111AAAAAAAAAAAAAAAAAAAAAAAAAAAAAAAAAAAAAAAAAAAAAAAAAAAAAAAAAAA
1111AAAAAAAAAAAAAAAAAAAAAAAAAAAAAAAAAAAAAAAAAAAAAAAAAAAAAAAAAAAA
111AAAAAAAAAAAAAAAAAAAAAAAAAAAAAAAAAAAAAAAAAAAAAAAAAAAAAAAAAAAAA
11AAAAAAAAAAAAAAAAAAAAAAAAAAAAAAAAAAAAAAAAAAAAAAAAAAAAAAAAAAAAAA
1AAAAAAAAAAAAAAAAAAAAAAAAAAAAAAAAAAAAAAAAAAAAAAAAAAAAAAAAAAAAAAA
AAAAAAAAAAAAAAAAAAAAAAAAAAAAAAAAAAAAAAAAAAAAAAAAAAAAAAAAAAAAAAAA
IIIIIIIIIIIIIIIIIIIIIIIIIIIIIIIIIIIIIIIIIIIIIIIIIIIII1IIIIII1IIA
IIIIIIIIIIIIIIIIIIIIIIIIIIIII1II1IIIIII1II1IIIIIII1II1IIIIII1IIA
IIIIIIIIIIIIIIIIIIIIIIIIIIIII1II1IIIIII1II1IIIIIII1II1IIIII11IAA
IIIIIIIIIIIIIIIIIIIIIIIIIIIII1I11IIIII11I11IIIIII11I11IIIII11IAA
IIIIIIIIIIIIIIIIIIIIIIIIIIIII1I11IIIII11111IIIII111111IIII111AAA
IIIIIIIIIIIIIIIIIIIIIIIIIII1I1111IIII111111IIIII111111IIII111AAA
IIIIIIIIIIIIIIIIIIIIIIIIIII1I1111IIII111111IIIII111111III111AAAA
IIIIIIIIIIIIIIIIIIIIIIIIIII1I1111IIII111111IIII1111111III111AAAA
IIIIIIIIIIIIIIIIIIIIIIIIIII1I1111IIII111111IIII1111111II111AAAAA
IIIIIIIIIIIIIIIIIIIIIIIII1I111111II1I111111III11111111II111AAAAA
IIIIIIIIIIIIIIIIIIIIIIII11I111111I11I111111II111111111I111AAAAAA
IIIIIIIIIIIIIIIIIIIIIIII11I111111I11I111111I1111111111111AAAAAAA
IIIIIIIIIIIIIIIIIIIIIIII11I111111I111111111I1111111111111AAAAAAA
IIIIIIIIIIIIIIIIIIIIIIII11I111111I1111111111111111111111AAAAAAAA
IIIIIIIIIIIIIIIIIIIIII1I11I111111I1111111111111111111111AAAAAAAA
IIIIIIIIIIIIIIIIIIIII11I11I111111I111111111111111111111AAAAAAAAA
IIIIIIIIIIIIIIIIIIII111111I111111111111111111111111111AAAAAAAAAA
IIIIIIIIIIIIIIIIIII1111111I11111111111111111111111111AAAAAAAAAAA
IIIIIIIIIIIIIIIIII11111111I1111111111111111111111111AAAAAAAAAAAA
IIIIIIIIIIIIIIIII111111111I111111111111111111111111AAAAAAAAAAAAA
IIIIIIIIIIIIIIII1111111111111111111111111111111111AAAAAAAAAAAAAA
IIIIIIIIIIIIIII1111111111111111111111111111111111AAAAAAAAAAAAAAA
IIIIIIIIIIIIII1111111111111111111111111111111111AAAAAAAAAAAAAAAA
IIIIIIIIIIIII1111111111111111111111111111111111AAAAAAAAAAAAAAAAA
IIIIIIIIIIII1111111111111111111111111111111111AAAAAAAAAAAAAAAAAA
IIIIIIIIIII1111111111111111111111111111111111AAAAAAAAAAAAAAAAAAA
IIIIIIIIII1111111111111111111111111111111111AAAAAAAAAAAAAAAAAAAA
IIIIIIIII1111111111111111111111111111111111AAAAAAAAAAAAAAAAAAAAA
IIIIIIII1111111111111111111111111111111111AAAAAAAAAAAAAAAAAAAAAA
IIIIIII1111111111111111111111111111111111AAAAAAAAAAAAAAAAAAAAAAA
IIIIII1111111111111111111111111111111111AAAAAAAAAAAAAAAAAAAAAAAA
IIIII1111111111111111111111111111111111AAAAAAAAAAAAAAAAAAAAAAAAA
IIII1111111111111111111111111111111111AAAAAAAAAAAAAAAAAAAAAAAAAA
III1111111111111111111111111111111111AAAAAAAAAAAAAAAAAAAAAAAAAAA
II1111111111111111111111111111111111AAAAAAAAAAAAAAAAAAAAAAAAAAAA
I1111111111111111111111111111111111AAAAAAAAAAAAAAAAAAAAAAAAAAAAA
1111111111111111111111111111111111AAAAAAAAAAAAAAAAAAAAAAAAAAAAAA
111111111111111111111111111111111AAAAAAAAAAAAAAAAAAAAAAAAAAAAAAA
11111111111111111111111111111111AAAAAAAAAAAAAAAAAAAAAAAAAAAAAAAA
1111111111111111111111111111111AAAAAAAAAAAAAAAAAAAAAAAAAAAAAAAAA
111111111111111111111111111111AAAAAAAAAAAAAAAAAAAAAAAAAAAAAAAAAA
11111111111111111111111111111AAAAAAAAAAAAAAAAAAAAAAAAAAAAAAAAAAA
1111111111111111111111111111AAAAAAAAAAAAAAAAAAAAAAAAAAAAAAAAAAAA
111111111111111111111111111AAAAAAAAAAAAAAAAAAAAAAAAAAAAAAAAAAAAA
11111111111111111111111111AAAAAAAAAAAAAAAAAAAAAAAAAAAAAAAAAAAAAA
1111111111111111111111111AAAAAAAAAAAAAAAAAAAAAAAAAAAAAAAAAAAAAAA
111111111111111111111111AAAAAAAAAAAAAAAAAAAAAAAAAAAAAAAAAAAAAAAA
11111111111111111111111AAAAAAAAAAAAAAAAAAAAAAAAAAAAAAAAAAAAAAAAA
1111111111111111111111AAAAAAAAAAAAAAAAAAAAAAAAAAAAAAAAAAAAAAAAAA
111111111111111111111AAAAAAAAAAAAAAAAAAAAAAAAAAAAAAAAAAAAAAAAAAA
11111111111111111111AAAAAAAAAAAAAAAAAAAAAAAAAAAAAAAAAAAAAAAAAAAA
1111111111111111111AAAAAAAAAAAAAAAAAAAAAAAAAAAAAAAAAAAAAAAAAAAAA
111111111111111111AAAAAAAAAAAAAAAAAAAAAAAAAAAAAAAAAAAAAAAAAAAAAA
11111111111111111AAAAAAAAAAAAAAAAAAAAAAAAAAAAAAAAAAAAAAAAAAAAAAA
1111111111111111AAAAAAAAAAAAAAAAAAAAAAAAAAAAAAAAAAAAAAAAAAAAAAAA
111111111111111AAAAAAAAAAAAAAAAAAAAAAAAAAAAAAAAAAAAAAAAAAAAAAAAA
11111111111111AAAAAAAAAAAAAAAAAAAAAAAAAAAAAAAAAAAAAAAAAAAAAAAAAA
1111111111111AAAAAAAAAAAAAAAAAAAAAAAAAAAAAAAAAAAAAAAAAAAAAAAAAAA
111111111111AAAAAAAAAAAAAAAAAAAAAAAAAAAAAAAAAAAAAAAAAAAAAAAAAAAA
11111111111AAAAAAAAAAAAAAAAAAAAAAAAAAAAAAAAAAAAAAAAAAAAAAAAAAAAA
1111111111AAAAAAAAAAAAAAAAAAAAAAAAAAAAAAAAAAAAAAAAAAAAAAAAAAAAAA
111111111AAAAAAAAAAAAAAAAAAAAAAAAAAAAAAAAAAAAAAAAAAAAAAAAAAAAAAA
11111111AAAAAAAAAAAAAAAAAAAAAAAAAAAAAAAAAAAAAAAAAAAAAAAAAAAAAAAA
1111111AAAAAAAAAAAAAAAAAAAAAAAAAAAAAAAAAAAAAAAAAAAAAAAAAAAAAAAAA
111111AAAAAAAAAAAAAAAAAAAAAAAAAAAAAAAAAAAAAAAAAAAAAAAAAAAAAAAAAA
11111AAAAAAAAAAAAAAAAAAAAAAAAAAAAAAAAAAAAAAAAAAAAAAAAAAAAAAAAAAA
1111AAAAAAAAAAAAAAAAAAAAAAAAAAAAAAAAAAAAAAAAAAAAAAAAAAAAAAAAAAAA
111AAAAAAAAAAAAAAAAAAAAAAAAAAAAAAAAAAAAAAAAAAAAAAAAAAAAAAAAAAAAA
11AAAAAAAAAAAAAAAAAAAAAAAAAAAAAAAAAAAAAAAAAAAAAAAAAAAAAAAAAAAAAA
1AAAAAAAAAAAAAAAAAAAAAAAAAAAAAAAAAAAAAAAAAAAAAAAAAAAAAAAAAAAAAAA
AAAAAAAAAAAAAAAAAAAAAAAAAAAAAAAAAAAAAAAAAAAAAAAAAAAAAAAAAAAAAAAA
IIIIIIIIIIIIIIIIIIIIIIIIIIIIIIIIIIIIIIIIIIIIIIIIIIIII1IIIIII1IIA
IIIIIIIIIIIIIIIIIIIIIIIIIIIII1IIIIII1III1II1IIIIII1II1IIIIII1IIA
IIIIIIIIIIIIIIIIIIIIIIIIIIIII1IIIIII1II11I11IIIII11I11IIIII11IAA
IIIIIIIIIIIIIIIIIIIIIIIIIIII11IIIII11II11I11IIIII11I11IIIII11IAA
IIIIIIIIIIIIIIIIIIIIIIIIIIII11IIIII11II11I11IIII111111IIII111AAA
IIIIIIIIIIIIIIIIIIIIIIIIIIII11IIII111I111111IIII111111IIII111AAA
IIIIIIIIIIIIIIIIIIIIIIIIIIII11IIII111I111111IIII111111III111AAAA
IIIIIIIIIIIIIIIIIIIIIIIIIIII11IIII111I111111III1111111III111AAAA
IIIIIIIIIIIIIIIIIIIIIIIIIIII11IIII111I111111III1111111II111AAAAA
IIIIIIIIIIIIIIIIIIIIIIIIIIII11II1I111I111111II11111111II111AAAAA
IIIIIIIIIIIIIIIIIIIIIIIIIIII11II1I111I111111II11111111I111AAAAAA
IIIIIIIIIIIIIIIIIIIII1II1III11I11I111I111111I111111111I111AAAAAA
IIIIIIIIIIIIIIIIIIII11I11III11111I11111111111111111111111AAAAAAA
IIIIIIIIIIIIIIIIIII111111III1111111111111111111111111111AAAAAAAA
IIIIIIIIIIIIIIIIII1111111III111111111111111111111111111AAAAAAAAA
IIIIIIIIIIIIIIIII11111111II111111111111111111111111111AAAAAAAAAA
IIIIIIIIIIIIIIII111111111I111111111111111111111111111AAAAAAAAAAA
IIIIIIIIIIIIIII1111111111111111111111111111111111111AAAAAAAAAAAA
IIIIIIIIIIIIII1111111111111111111111111111111111111AAAAAAAAAAAAA
IIIIIIIIIIIII1111111111111111111111111111111111111AAAAAAAAAAAAAA
IIIIIIIIIIII1111111111111111111111111111111111111AAAAAAAAAAAAAAA
IIIIIIIIIII1111111111111111111111111111111111111AAAAAAAAAAAAAAAA
IIIIIIIIII1111111111111111111111111111111111111AAAAAAAAAAAAAAAAA
IIIIIIIII1111111111111111111111111111111111111AAAAAAAAAAAAAAAAAA
IIIIIIII1111111111111111111111111111111111111AAAAAAAAAAAAAAAAAAA
IIIIIII1111111111111111111111111111111111111AAAAAAAAAAAAAAAAAAAA
IIIIII1111111111111111111111111111111111111AAAAAAAAAAAAAAAAAAAAA
IIIII1111111111111111111111111111111111111AAAAAAAAAAAAAAAAAAAAAA
IIII1111111111111111111111111111111111111AAAAAAAAAAAAAAAAAAAAAAA
III1111111111111111111111111111111111111AAAAAAAAAAAAAAAAAAAAAAAA
II1111111111111111111111111111111111111AAAAAAAAAAAAAAAAAAAAAAAAA
I1111111111111111111111111111111111111AAAAAAAAAAAAAAAAAAAAAAAAAA
1111111111111111111111111111111111111AAAAAAAAAAAAAAAAAAAAAAAAAAA
111111111111111111111111111111111111AAAAAAAAAAAAAAAAAAAAAAAAAAAA
11111111111111111111111111111111111AAAAAAAAAAAAAAAAAAAAAAAAAAAAA
1111111111111111111111111111111111AAAAAAAAAAAAAAAAAAAAAAAAAAAAAA
111111111111111111111111111111111AAAAAAAAAAAAAAAAAAAAAAAAAAAAAAA
11111111111111111111111111111111AAAAAAAAAAAAAAAAAAAAAAAAAAAAAAAA
1111111111111111111111111111111AAAAAAAAAAAAAAAAAAAAAAAAAAAAAAAAA
111111111111111111111111111111AAAAAAAAAAAAAAAAAAAAAAAAAAAAAAAAAA
11111111111111111111111111111AAAAAAAAAAAAAAAAAAAAAAAAAAAAAAAAAAA
1111111111111111111111111111AAAAAAAAAAAAAAAAAAAAAAAAAAAAAAAAAAAA
111111111111111111111111111AAAAAAAAAAAAAAAAAAAAAAAAAAAAAAAAAAAAA
11111111111111111111111111AAAAAAAAAAAAAAAAAAAAAAAAAAAAAAAAAAAAAA
1111111111111111111111111AAAAAAAAAAAAAAAAAAAAAAAAAAAAAAAAAAAAAAA
111111111111111111111111AAAAAAAAAAAAAAAAAAAAAAAAAAAAAAAAAAAAAAAA
11111111111111111111111AAAAAAAAAAAAAAAAAAAAAAAAAAAAAAAAAAAAAAAAA
1111111111111111111111AAAAAAAAAAAAAAAAAAAAAAAAAAAAAAAAAAAAAAAAAA
111111111111111111111AAAAAAAAAAAAAAAAAAAAAAAAAAAAAAAAAAAAAAAAAAA
11111111111111111111AAAAAAAAAAAAAAAAAAAAAAAAAAAAAAAAAAAAAAAAAAAA
1111111111111111111AAAAAAAAAAAAAAAAAAAAAAAAAAAAAAAAAAAAAAAAAAAAA
111111111111111111AAAAAAAAAAAAAAAAAAAAAAAAAAAAAAAAAAAAAAAAAAAAAA
11111111111111111AAAAAAAAAAAAAAAAAAAAAAAAAAAAAAAAAAAAAAAAAAAAAAA
1111111111111111AAAAAAAAAAAAAAAAAAAAAAAAAAAAAAAAAAAAAAAAAAAAAAAA
111111111111111AAAAAAAAAAAAAAAAAAAAAAAAAAAAAAAAAAAAAAAAAAAAAAAAA
11111111111111AAAAAAAAAAAAAAAAAAAAAAAAAAAAAAAAAAAAAAAAAAAAAAAAAA
1111111111111AAAAAAAAAAAAAAAAAAAAAAAAAAAAAAAAAAAAAAAAAAAAAAAAAAA
111111111111AAAAAAAAAAAAAAAAAAAAAAAAAAAAAAAAAAAAAAAAAAAAAAAAAAAA
11111111111AAAAAAAAAAAAAAAAAAAAAAAAAAAAAAAAAAAAAAAAAAAAAAAAAAAAA
1111111111AAAAAAAAAAAAAAAAAAAAAAAAAAAAAAAAAAAAAAAAAAAAAAAAAAAAAA
111111111AAAAAAAAAAAAAAAAAAAAAAAAAAAAAAAAAAAAAAAAAAAAAAAAAAAAAAA
11111111AAAAAAAAAAAAAAAAAAAAAAAAAAAAAAAAAAAAAAAAAAAAAAAAAAAAAAAA
1111111AAAAAAAAAAAAAAAAAAAAAAAAAAAAAAAAAAAAAAAAAAAAAAAAAAAAAAAAA
111111AAAAAAAAAAAAAAAAAAAAAAAAAAAAAAAAAAAAAAAAAAAAAAAAAAAAAAAAAA
11111AAAAAAAAAAAAAAAAAAAAAAAAAAAAAAAAAAAAAAAAAAAAAAAAAAAAAAAAAAA
1111AAAAAAAAAAAAAAAAAAAAAAAAAAAAAAAAAAAAAAAAAAAAAAAAAAAAAAAAAAAA
111AAAAAAAAAAAAAAAAAAAAAAAAAAAAAAAAAAAAAAAAAAAAAAAAAAAAAAAAAAAAA
11AAAAAAAAAAAAAAAAAAAAAAAAAAAAAAAAAAAAAAAAAAAAAAAAAAAAAAAAAAAAAA
1AAAAAAAAAAAAAAAAAAAAAAAAAAAAAAAAAAAAAAAAAAAAAAAAAAAAAAAAAAAAAAA
AAAAAAAAAAAAAAAAAAAAAAAAAAAAAAAAAAAAAAAAAAAAAAAAAAAAAAAAAAAAAAAA
IIIIIIIIIIIIIIIIIIIIIIIIIIIIIIIIIIII11IIIII1IIIIII1II1IIIIII1IIA
IIIIIIIIIIIIIIIIIIIIIIIIIIIIIIIIIII111IIII11IIIII11I11IIIII11IAA
IIIIIIIIIIIIIIIIIIIIIIIIIIIIIIIIII1111III111IIII111111IIII111AAA
IIIIIIIIIIIIIIIIIIIIIIIIIIIIIIIII11111II1111III1111111III111AAAA
IIIIIIIIIIIIIIIIIIIIIIIIIIIIIIIII11111I11111II11111111II111AAAAA
IIIIIIIIIIIIIIIIIIIIIIIIIIIIIIII111111I11111II11111111II111AAAAA
IIIIIIIIIIIIIIIIIIIIIIIIIIIIIIII111111I11111II11111111I111AAAAAA
IIIIIIIIIIIIIIIIIIIIIIIIIIIIIII1111111111111I111111111I111AAAAAA
IIIIIIIIIIIIIIIIIIIIIIIIIIIIIII1111111111111I111111111111AAAAAAA
IIIIIIIIIIIIIIIIIIIIIIIIIIIIII111111111111111111111111111AAAAAAA
IIIIIIIIIIIIIIIIIIIIIIIIIIIII111111111111111111111111111AAAAAAAA
IIIIIIIIIIIIIIIIIIIIIIIIIIII111111111111111111111111111AAAAAAAAA
IIIIIIIIIIIIIIIIIIIIIIIIIII111111111111111111111111111AAAAAAAAAA
IIIIIIIIIIIIIIIIIIIIIIIIII111111111111111111111111111AAAAAAAAAAA
IIIIIIIIIIIIIIIIIIIIIIIII111111111111111111111111111AAAAAAAAAAAA
IIIIIIIIIIIIIIIIIIIIIIII111111111111111111111111111AAAAAAAAAAAAA
IIIIIIIIIIIIIIIIIIIIIII111111111111111111111111111AAAAAAAAAAAAAA
IIIIIIIIIIIIIIIIIIIIII111111111111111111111111111AAAAAAAAAAAAAAA
IIIIIIIIIIIIIIIIIIIII111111111111111111111111111AAAAAAAAAAAAAAAA
IIIIIIIIIIIIIIIIIIII111111111111111111111111111AAAAAAAAAAAAAAAAA
IIIIIIIIIIIIIIIIIII111111111111111111111111111AAAAAAAAAAAAAAAAAA
IIIIIIIIIIIIIIIIII111111111111111111111111111AAAAAAAAAAAAAAAAAAA
IIIIIIIIIIIIIIIII111111111111111111111111111AAAAAAAAAAAAAAAAAAAA
IIIIIIIIIIIIIIII111111111111111111111111111AAAAAAAAAAAAAAAAAAAAA
IIIIIIIIIIIIIII111111111111111111111111111AAAAAAAAAAAAAAAAAAAAAA
IIIIIIIIIIIIII111111111111111111111111111AAAAAAAAAAAAAAAAAAAAAAA
IIIIIIIIIIIII111111111111111111111111111AAAAAAAAAAAAAAAAAAAAAAAA
IIIIIIIIIIII111111111111111111111111111AAAAAAAAAAAAAAAAAAAAAAAAA
IIIIIIIIIII111111111111111111111111111AAAAAAAAAAAAAAAAAAAAAAAAAA
IIIIIIIIII111111111111111111111111111AAAAAAAAAAAAAAAAAAAAAAAAAAA
IIIIIIIII111111111111111111111111111AAAAAAAAAAAAAAAAAAAAAAAAAAAA
IIIIIIII111111111111111111111111111AAAAAAAAAAAAAAAAAAAAAAAAAAAAA
IIIIIII111111111111111111111111111AAAAAAAAAAAAAAAAAAAAAAAAAAAAAA
IIIIII111111111111111111111111111AAAAAAAAAAAAAAAAAAAAAAAAAAAAAAA
IIIII111111111111111111111111111AAAAAAAAAAAAAAAAAAAAAAAAAAAAAAAA
IIII111111111111111111111111111AAAAAAAAAAAAAAAAAAAAAAAAAAAAAAAAA
III111111111111111111111111111AAAAAAAAAAAAAAAAAAAAAAAAAAAAAAAAAA
II111111111111111111111111111AAAAAAAAAAAAAAAAAAAAAAAAAAAAAAAAAAA
I111111111111111111111111111AAAAAAAAAAAAAAAAAAAAAAAAAAAAAAAAAAAA
111111111111111111111111111AAAAAAAAAAAAAAAAAAAAAAAAAAAAAAAAAAAAA
11111111111111111111111111AAAAAAAAAAAAAAAAAAAAAAAAAAAAAAAAAAAAAA
1111111111111111111111111AAAAAAAAAAAAAAAAAAAAAAAAAAAAAAAAAAAAAAA
111111111111111111111111AAAAAAAAAAAAAAAAAAAAAAAAAAAAAAAAAAAAAAAA
11111111111111111111111AAAAAAAAAAAAAAAAAAAAAAAAAAAAAAAAAAAAAAAAA
1111111111111111111111AAAAAAAAAAAAAAAAAAAAAAAAAAAAAAAAAAAAAAAAAA
111111111111111111111AAAAAAAAAAAAAAAAAAAAAAAAAAAAAAAAAAAAAAAAAAA
11111111111111111111AAAAAAAAAAAAAAAAAAAAAAAAAAAAAAAAAAAAAAAAAAAA
1111111111111111111AAAAAAAAAAAAAAAAAAAAAAAAAAAAAAAAAAAAAAAAAAAAA
111111111111111111AAAAAAAAAAAAAAAAAAAAAAAAAAAAAAAAAAAAAAAAAAAAAA
11111111111111111AAAAAAAAAAAAAAAAAAAAAAAAAAAAAAAAAAAAAAAAAAAAAAA
1111111111111111AAAAAAAAAAAAAAAAAAAAAAAAAAAAAAAAAAAAAAAAAAAAAAAA
111111111111111AAAAAAAAAAAAAAAAAAAAAAAAAAAAAAAAAAAAAAAAAAAAAAAAA
11111111111111AAAAAAAAAAAAAAAAAAAAAAAAAAAAAAAAAAAAAAAAAAAAAAAAAA
1111111111111AAAAAAAAAAAAAAAAAAAAAAAAAAAAAAAAAAAAAAAAAAAAAAAAAAA
111111111111AAAAAAAAAAAAAAAAAAAAAAAAAAAAAAAAAAAAAAAAAAAAAAAAAAAA
11111111111AAAAAAAAAAAAAAAAAAAAAAAAAAAAAAAAAAAAAAAAAAAAAAAAAAAAA
1111111111AAAAAAAAAAAAAAAAAAAAAAAAAAAAAAAAAAAAAAAAAAAAAAAAAAAAAA
111111111AAAAAAAAAAAAAAAAAAAAAAAAAAAAAAAAAAAAAAAAAAAAAAAAAAAAAAA
11111111AAAAAAAAAAAAAAAAAAAAAAAAAAAAAAAAAAAAAAAAAAAAAAAAAAAAAAAA
1111111AAAAAAAAAAAAAAAAAAAAAAAAAAAAAAAAAAAAAAAAAAAAAAAAAAAAAAAAA
111111AAAAAAAAAAAAAAAAAAAAAAAAAAAAAAAAAAAAAAAAAAAAAAAAAAAAAAAAAA
11111AAAAAAAAAAAAAAAAAAAAAAAAAAAAAAAAAAAAAAAAAAAAAAAAAAAAAAAAAAA
1111AAAAAAAAAAAAAAAAAAAAAAAAAAAAAAAAAAAAAAAAAAAAAAAAAAAAAAAAAAAA
111AAAAAAAAAAAAAAAAAAAAAAAAAAAAAAAAAAAAAAAAAAAAAAAAAAAAAAAAAAAAA
11AAAAAAAAAAAAAAAAAAAAAAAAAAAAAAAAAAAAAAAAAAAAAAAAAAAAAAAAAAAAAA
1AAAAAAAAAAAAAAAAAAAAAAAAAAAAAAAAAAAAAAAAAAAAAAAAAAAAAAAAAAAAAAA
AAAAAAAAAAAAAAAAAAAAAAAAAAAAAAAAAAAAAAAAAAAAAAAAAAAAAAAAAAAAAAAA
IIIIIIIIIIIIIIIIIIIIIIIIIIIIIIIIIIIIIIIIIIIIIIIIIIIIIIIIIIIIIIIA
IIIIIIIIIIIIIIIIIIIIIIIIIIIIIIIIIIIIIIIIIII1IIIIII1II1IIIIII1IIA
IIIIIIIIIIIIIIIIIIIIIIIIIIIIIIIIIIIIIIIIIII1IIIIII1II1IIIII11IAA
IIIIIIIIIIIIIIIIIIIIIIIIIIII2IIIIII1IIIIII11IIIII11I11IIIII11IAA
IIIIIIIIIIIIIIIIIIIIIIIIIIII2IIIIII1IIIIII11IIIII11111IIII111AAA
IIIIIIIIIIIIIIIIIIIIIIIIIIII2IIIII11IIIII111IIII111111IIII111AAA
IIIIIIIIIIIIIIIIIIIIIIIIIIII2IIIII11IIIII111IIII111111III111AAAA
IIIIIIIIIIIIIIIIIIIIIIIIIIII2IIIII11IIIII111III1111111III111AAAA
IIIIIIIIIIIIIIIIIIIIIIIIIIII2IIIII11IIIII111III1111111III11AAAAA
IIIIIIIIIIIIIIIIIIIIIIIIIIII2IIIII11IIIII111III1111111II111AAAAA
IIIIIIIIIIIIIIIIIIIIIIIIIIII2IIIII11IIIII111III1111111II11AAAAAA
IIIIIIIIIIIIIIIIIIIIIIII2III2II1II11II1II111I1I1111111I111AAAAAA
IIIIIIIIIIIIIIIIIIIIIII22III2I11II11I11II11111I1111111111AAAAAAA
IIIIIIIIIIIIIIIIIIIIII222III2111II11111II111111111111111AAAAAAAA
IIIIIIIIIIIIIIIIIIIII2222III1111II11111II11111111111111AAAAAAAAA
IIIIIIIIIIIIIIIIIIII22222II11111II11111II1111111111111AAAAAAAAAA
IIIIIIIIIIIIIIIIIII222222I111111I111111I1111111111111AAAAAAAAAAA
IIIIIIIIIIIIIIIIII2222222111111111111111111111111111AAAAAAAAAAAA
IIIIIIIIIIIIIIIII2222222111111111111111111111111111AAAAAAAAAAAAA
IIIIIIIIIIIIIIII2222222111111111111111111111111111AAAAAAAAAAAAAA
IIIIIIIIIIIIIII2222222111111111111111111111111111AAAAAAAAAAAAAAA
IIIIIIIIIIIIII2222222111111111111111111111111111AAAAAAAAAAAAAAAA
IIIIIIIIIIIII2222222111111111111111111111111111AAAAAAAAAAAAAAAAA
IIIIIIIIIIII2222222111111111111111111111111111AAAAAAAAAAAAAAAAAA
IIIIIIIIIII2222222111111111111111111111111111AAAAAAAAAAAAAAAAAAA
IIIIIIIIII2222222111111111111111111111111111AAAAAAAAAAAAAAAAAAAA
IIIIIIIII2222222111111111111111111111111111AAAAAAAAAAAAAAAAAAAAA
IIIIIIII2222222111111111111111111111111111AAAAAAAAAAAAAAAAAAAAAA
IIIIIII2222222111111111111111111111111111AAAAAAAAAAAAAAAAAAAAAAA
IIIIII2222222111111111111111111111111111AAAAAAAAAAAAAAAAAAAAAAAA
IIIII2222222111111111111111111111111111AAAAAAAAAAAAAAAAAAAAAAAAA
IIII2222222111111111111111111111111111AAAAAAAAAAAAAAAAAAAAAAAAAA
IIII222222111111111111111111111111111AAAAAAAAAAAAAAAAAAAAAAAAAAA
III2222222111111111111111111111111111AAAAAAAAAAAAAAAAAAAAAAAAAAA
III222222111111111111111111111111111AAAAAAAAAAAAAAAAAAAAAAAAAAAA
II2222222111111111111111111111111111AAAAAAAAAAAAAAAAAAAAAAAAAAAA
I2222222111111111111111111111111111AAAAAAAAAAAAAAAAAAAAAAAAAAAAA
2222222111111111111111111111111111AAAAAAAAAAAAAAAAAAAAAAAAAAAAAA
222222111111111111111111111111111AAAAAAAAAAAAAAAAAAAAAAAAAAAAAAA
22222111111111111111111111111111AAAAAAAAAAAAAAAAAAAAAAAAAAAAAAAA
2222111111111111111111111111111AAAAAAAAAAAAAAAAAAAAAAAAAAAAAAAAA
222111111111111111111111111111AAAAAAAAAAAAAAAAAAAAAAAAAAAAAAAAAA
22111111111111111111111111111AAAAAAAAAAAAAAAAAAAAAAAAAAAAAAAAAAA
2111111111111111111111111111AAAAAAAAAAAAAAAAAAAAAAAAAAAAAAAAAAAA
111111111111111111111111111AAAAAAAAAAAAAAAAAAAAAAAAAAAAAAAAAAAAA
11111111111111111111111111AAAAAAAAAAAAAAAAAAAAAAAAAAAAAAAAAAAAAA
1111111111111111111111111AAAAAAAAAAAAAAAAAAAAAAAAAAAAAAAAAAAAAAA
111111111111111111111111AAAAAAAAAAAAAAAAAAAAAAAAAAAAAAAAAAAAAAAA
11111111111111111111111AAAAAAAAAAAAAAAAAAAAAAAAAAAAAAAAAAAAAAAAA
1111111111111111111111AAAAAAAAAAAAAAAAAAAAAAAAAAAAAAAAAAAAAAAAAA
111111111111111111111AAAAAAAAAAAAAAAAAAAAAAAAAAAAAAAAAAAAAAAAAAA
11111111111111111111AAAAAAAAAAAAAAAAAAAAAAAAAAAAAAAAAAAAAAAAAAAA
1111111111111111111AAAAAAAAAAAAAAAAAAAAAAAAAAAAAAAAAAAAAAAAAAAAA
111111111111111111AAAAAAAAAAAAAAAAAAAAAAAAAAAAAAAAAAAAAAAAAAAAAA
11111111111111111AAAAAAAAAAAAAAAAAAAAAAAAAAAAAAAAAAAAAAAAAAAAAAA
1111111111111111AAAAAAAAAAAAAAAAAAAAAAAAAAAAAAAAAAAAAAAAAAAAAAAA
111111111111111AAAAAAAAAAAAAAAAAAAAAAAAAAAAAAAAAAAAAAAAAAAAAAAAA
11111111111111AAAAAAAAAAAAAAAAAAAAAAAAAAAAAAAAAAAAAAAAAAAAAAAAAA
1111111111111AAAAAAAAAAAAAAAAAAAAAAAAAAAAAAAAAAAAAAAAAAAAAAAAAAA
111111111111AAAAAAAAAAAAAAAAAAAAAAAAAAAAAAAAAAAAAAAAAAAAAAAAAAAA
11111111111AAAAAAAAAAAAAAAAAAAAAAAAAAAAAAAAAAAAAAAAAAAAAAAAAAAAA
1111111111AAAAAAAAAAAAAAAAAAAAAAAAAAAAAAAAAAAAAAAAAAAAAAAAAAAAAA
111111111AAAAAAAAAAAAAAAAAAAAAAAAAAAAAAAAAAAAAAAAAAAAAAAAAAAAAAA
11111111AAAAAAAAAAAAAAAAAAAAAAAAAAAAAAAAAAAAAAAAAAAAAAAAAAAAAAAA
1111111AAAAAAAAAAAAAAAAAAAAAAAAAAAAAAAAAAAAAAAAAAAAAAAAAAAAAAAAA
111111AAAAAAAAAAAAAAAAAAAAAAAAAAAAAAAAAAAAAAAAAAAAAAAAAAAAAAAAAA
11111AAAAAAAAAAAAAAAAAAAAAAAAAAAAAAAAAAAAAAAAAAAAAAAAAAAAAAAAAAA
1111AAAAAAAAAAAAAAAAAAAAAAAAAAAAAAAAAAAAAAAAAAAAAAAAAAAAAAAAAAAA
111AAAAAAAAAAAAAAAAAAAAAAAAAAAAAAAAAAAAAAAAAAAAAAAAAAAAAAAAAAAAA
11AAAAAAAAAAAAAAAAAAAAAAAAAAAAAAAAAAAAAAAAAAAAAAAAAAAAAAAAAAAAAA
1AAAAAAAAAAAAAAAAAAAAAAAAAAAAAAAAAAAAAAAAAAAAAAAAAAAAAAAAAAAAAAA
AAAAAAAAAAAAAAAAAAAAAAAAAAAAAAAAAAAAAAAAAAAAAAAAAAAAAAAAAAAAAAAA
IIIIIIIIIIIIIIIIIIIIIIIIIIIIIIIIIIII2IIIIIIIII1IIIIII1II1IIIIIIA
IIIIIIIIIIIIIIIIIIIIIIIIIIIIIIIIIII22IIIIIIII11IIIII11I11IIIIIAA
IIIIIIIIIIIIIIIIIIIIIIIIIIIIIIIIII222IIIIIII111IIII111111IIIIAAA
IIIIIIIIIIIIIIIIIIIIIIIIIIIIIIIII2222IIIIII1111III1111111IIIAAAA
IIIIIIIIIIIIIIIIIIIIIIIIIIIIIIII22222IIIII11111II11111111IIAAAAA
IIIIIIIIIIIIIIIIIIIIIIIIIIIIIII222222IIII111111I111111111IAAAAAA
IIIIIIIIIIIIIIIIIIIIIIIIIIIIIII222222IIII1111111111111111AAAAAAA
IIIIIIIIIIIIIIIIIIIIIIIIIIIIIII222222III11111111111111111AAAAAAA
IIIIIIIIIIIIIIIIIIIIIIIIIIIIIII222222II11111111111111111AAAAAAAA
IIIIIIIIIIIIIIIIIIIIIIIIIIIII2I222222II11111111111111111AAAAAAAA
IIIIIIIIIIIIIIIIIIIIIIIIIIIII2I222222II1111111111111111AAAAAAAAA
IIIIIIIIIIIIIIIIIIIIIIIIIIII22I222222I11111111111111111AAAAAAAAA
IIIIIIIIIIIIIIIIIIIIIIIIIIII22I22222211111111111111111AAAAAAAAAA
IIIIIIIIIIIIIIIIIIIIIIIIIII222I22222211111111111111111AAAAAAAAAA
IIIIIIIIIIIIIIIIIIIIIIIIII2222I2222211111111111111111AAAAAAAAAAA
IIIIIIIIIIIIIIIIIIIIIIIII22222I222211111111111111111AAAAAAAAAAAA
IIIIIIIIIIIIIIIIIIIIIIII222222I22211111111111111111AAAAAAAAAAAAA
IIIIIIIIIIIIIIIIIIIIIII2222222I2211111111111111111AAAAAAAAAAAAAA
IIIIIIIIIIIIIIIIIIIIII22222222I211111111111111111AAAAAAAAAAAAAAA
IIIIIIIIIIIIIIIIIIIII222222222I11111111111111111AAAAAAAAAAAAAAAA
IIIIIIIIIIIIIIIIIIII222222222211111111111111111AAAAAAAAAAAAAAAAA
IIIIIIIIIIIIIIIIIII222222222211111111111111111AAAAAAAAAAAAAAAAAA
IIIIIIIIIIIIIIIIII222222222211111111111111111AAAAAAAAAAAAAAAAAAA
IIIIIIIIIIIIIIIII222222222211111111111111111AAAAAAAAAAAAAAAAAAAA
IIIIIIIIIIIIIIIII22222222211111111111111111AAAAAAAAAAAAAAAAAAAAA
IIIIIIIIIIIIIIII222222222211111111111111111AAAAAAAAAAAAAAAAAAAAA
IIIIIIIIIIIIIII222222222211111111111111111AAAAAAAAAAAAAAAAAAAAAA
IIIIIIIIIIIIII222222222211111111111111111AAAAAAAAAAAAAAAAAAAAAAA
IIIIIIIIIIIII222222222211111111111111111AAAAAAAAAAAAAAAAAAAAAAAA
IIIIIIIIIIIII22222222221111111111111111AAAAAAAAAAAAAAAAAAAAAAAAA
IIIIIIIIIIII222222222211111111111111111AAAAAAAAAAAAAAAAAAAAAAAAA
IIIIIIIIIII222222222211111111111111111AAAAAAAAAAAAAAAAAAAAAAAAAA
IIIIIIIIII222222222211111111111111111AAAAAAAAAAAAAAAAAAAAAAAAAAA
IIIIIIIII222222222211111111111111111AAAAAAAAAAAAAAAAAAAAAAAAAAAA
IIIIIIIII22222222221111111111111111AAAAAAAAAAAAAAAAAAAAAAAAAAAAA
IIIIIIII222222222211111111111111111AAAAAAAAAAAAAAAAAAAAAAAAAAAAA
IIIIIII222222222211111111111111111AAAAAAAAAAAAAAAAAAAAAAAAAAAAAA
IIIIII222222222211111111111111111AAAAAAAAAAAAAAAAAAAAAAAAAAAAAAA
IIIII222222222211111111111111111AAAAAAAAAAAAAAAAAAAAAAAAAAAAAAAA
IIII222222222211111111111111111AAAAAAAAAAAAAAAAAAAAAAAAAAAAAAAAA
III222222222211111111111111111AAAAAAAAAAAAAAAAAAAAAAAAAAAAAAAAAA
II222222222211111111111111111AAAAAAAAAAAAAAAAAAAAAAAAAAAAAAAAAAA
I222222222211111111111111111AAAAAAAAAAAAAAAAAAAAAAAAAAAAAAAAAAAA
222222222211111111111111111AAAAAAAAAAAAAAAAAAAAAAAAAAAAAAAAAAAAA
22222222211111111111111111AAAAAAAAAAAAAAAAAAAAAAAAAAAAAAAAAAAAAA
2222222211111111111111111AAAAAAAAAAAAAAAAAAAAAAAAAAAAAAAAAAAAAAA
222222211111111111111111AAAAAAAAAAAAAAAAAAAAAAAAAAAAAAAAAAAAAAAA
22222211111111111111111AAAAAAAAAAAAAAAAAAAAAAAAAAAAAAAAAAAAAAAAA
2222211111111111111111AAAAAAAAAAAAAAAAAAAAAAAAAAAAAAAAAAAAAAAAAA
222211111111111111111AAAAAAAAAAAAAAAAAAAAAAAAAAAAAAAAAAAAAAAAAAA
22211111111111111111AAAAAAAAAAAAAAAAAAAAAAAAAAAAAAAAAAAAAAAAAAAA
2211111111111111111AAAAAAAAAAAAAAAAAAAAAAAAAAAAAAAAAAAAAAAAAAAAA
211111111111111111AAAAAAAAAAAAAAAAAAAAAAAAAAAAAAAAAAAAAAAAAAAAAA
11111111111111111AAAAAAAAAAAAAAAAAAAAAAAAAAAAAAAAAAAAAAAAAAAAAAA
1111111111111111AAAAAAAAAAAAAAAAAAAAAAAAAAAAAAAAAAAAAAAAAAAAAAAA
111111111111111AAAAAAAAAAAAAAAAAAAAAAAAAAAAAAAAAAAAAAAAAAAAAAAAA
11111111111111AAAAAAAAAAAAAAAAAAAAAAAAAAAAAAAAAAAAAAAAAAAAAAAAAA
1111111111111AAAAAAAAAAAAAAAAAAAAAAAAAAAAAAAAAAAAAAAAAAAAAAAAAAA
111111111111AAAAAAAAAAAAAAAAAAAAAAAAAAAAAAAAAAAAAAAAAAAAAAAAAAAA
11111111111AAAAAAAAAAAAAAAAAAAAAAAAAAAAAAAAAAAAAAAAAAAAAAAAAAAAA
1111111111AAAAAAAAAAAAAAAAAAAAAAAAAAAAAAAAAAAAAAAAAAAAAAAAAAAAAA
111111111AAAAAAAAAAAAAAAAAAAAAAAAAAAAAAAAAAAAAAAAAAAAAAAAAAAAAAA
11111111AAAAAAAAAAAAAAAAAAAAAAAAAAAAAAAAAAAAAAAAAAAAAAAAAAAAAAAA
1111111AAAAAAAAAAAAAAAAAAAAAAAAAAAAAAAAAAAAAAAAAAAAAAAAAAAAAAAAA
111111AAAAAAAAAAAAAAAAAAAAAAAAAAAAAAAAAAAAAAAAAAAAAAAAAAAAAAAAAA
11111AAAAAAAAAAAAAAAAAAAAAAAAAAAAAAAAAAAAAAAAAAAAAAAAAAAAAAAAAAA
1111AAAAAAAAAAAAAAAAAAAAAAAAAAAAAAAAAAAAAAAAAAAAAAAAAAAAAAAAAAAA
111AAAAAAAAAAAAAAAAAAAAAAAAAAAAAAAAAAAAAAAAAAAAAAAAAAAAAAAAAAAAA
11AAAAAAAAAAAAAAAAAAAAAAAAAAAAAAAAAAAAAAAAAAAAAAAAAAAAAAAAAAAAAA
1AAAAAAAAAAAAAAAAAAAAAAAAAAAAAAAAAAAAAAAAAAAAAAAAAAAAAAAAAAAAAAA
AAAAAAAAAAAAAAAAAAAAAAAAAAAAAAAAAAAAAAAAAAAAAAAAAAAAAAAAAAAAAAAA
IIIIIIIIIIIIIIIIIIIIIIIIIIIIIIIIIIIIIIIIIIIIIIIIIIIIIIIIIIIIIIIA
IIIIIIIIIIIIIIIIIIIIIIIIIIIIIIIIIIII11II1II1IIIIII1II1IIIIII1IIA
IIIIIIIIIIIIIIIIIIIIIIIIIIIIIIIIIIII11II1II1IIIIII1II1IIIII11IAA
IIIIIIIIIIIIIIIIIIIIIIIIIIIIIIIIIIII11II1II1IIIII11I11IIIII11IAA
IIIIIIIIIIIIIIIIIIIIIIIIIIIIIIIIII1I111I11I1IIII111111IIII111AAA
IIIIIIIIIIIIIIIIIIIIIIIIIIIIIIIIII11111I11I1IIII111111IIII111AAA
IIIIIIIIIIIIIIIIIIIIIIIIIIIIIIIII111111I11I1III1111111III111AAAA
IIIIIIIIIIIIIIIIIIIIIIIIIIIIIIIII111111I11I1II11111111II111AAAAA
IIIIIIIIIIIIIIIIIIIIIIIIIIIIIIIII111111111I1II11111111II111AAAAA
IIIIIIIIIIIIIIIIIIIIIIIIIIIIIIIII111111111I1II11111111I111AAAAAA
IIIIIIIIIIIIIIIIIIIIIIIIIIIIIIIII111111111I1I111111111I111AAAAAA
IIIIIIIIIIIIIIIIIIIIIIIIIIIIIIIII111111111I1I111111111111AAAAAAA
[...]
IIIIIIIIIIIIIIIIIIIIIIIIIIIII22222222II11111111II11111IIIIAAAAAA
IIIIIIIIIIIIIIIIIIIIIIIIIIII222222222I111111111I111111IIIIAAAAAA
IIIIIIIIIIIIIIIIIIIIIIIIIIII222222222I1111111111111111IIIAAAAAAA
IIIIIIIIIIIIIIIIIIIIIIIIIII222222222211111111111111111IIIAAAAAAA
IIIIIIIIIIIIIIIIIIIIIIIIII2222222222111111111111111111IIAAAAAAAA
IIIIIIIIIIIIIIIIIIIIIIIII22222222221111111111111111111IAAAAAAAAA
IIIIIIIIIIIIIIIIIIIIIIII222222222211111111111111111111AAAAAAAAAA
IIIIIIIIIIIIIIIIIIIIIII222222222211111111111111111111AAAAAAAAAAA
IIIIIIIIIIIIIIIIIIIIII222222222211111111111111111111AAAAAAAAAAAA
IIIIIIIIIIIIIIIIIIIII222222222211111111111111111111AAAAAAAAAAAAA
IIIIIIIIIIIIIIIIIIII222222222211111111111111111111AAAAAAAAAAAAAA
IIIIIIIIIIIIIIIIIII222222222211111111111111111111AAAAAAAAAAAAAAA
IIIIIIIIIIIIIIIIII222222222211111111111111111111AAAAAAAAAAAAAAAA
IIIIIIIIIIIIIIIII222222222211111111111111111111AAAAAAAAAAAAAAAAA
IIIIIIIIIIIIIIII222222222211111111111111111111AAAAAAAAAAAAAAAAAA
IIIIIIIIIIIIIII222222222211111111111111111111AAAAAAAAAAAAAAAAAAA
IIIIIIIIIIIIIII22222222211111111111111111111AAAAAAAAAAAAAAAAAAAA
IIIIIIIIIIIIII222222222211111111111111111111AAAAAAAAAAAAAAAAAAAA
IIIIIIIIIIIII222222222211111111111111111111AAAAAAAAAAAAAAAAAAAAA
IIIIIIIIIIII222222222211111111111111111111AAAAAAAAAAAAAAAAAAAAAA
IIIIIIIIIII222222222211111111111111111111AAAAAAAAAAAAAAAAAAAAAAA
IIIIIIIIII222222222211111111111111111111AAAAAAAAAAAAAAAAAAAAAAAA
IIIIIIIII222222222211111111111111111111AAAAAAAAAAAAAAAAAAAAAAAAA
IIIIIIII222222222211111111111111111111AAAAAAAAAAAAAAAAAAAAAAAAAA
IIIIIII222222222211111111111111111111AAAAAAAAAAAAAAAAAAAAAAAAAAA
IIIIII222222222211111111111111111111AAAAAAAAAAAAAAAAAAAAAAAAAAAA
IIIII222222222211111111111111111111AAAAAAAAAAAAAAAAAAAAAAAAAAAAA
IIII222222222211111111111111111111AAAAAAAAAAAAAAAAAAAAAAAAAAAAAA
III222222222211111111111111111111AAAAAAAAAAAAAAAAAAAAAAAAAAAAAAA
II222222222211111111111111111111AAAAAAAAAAAAAAAAAAAAAAAAAAAAAAAA
I222222222211111111111111111111AAAAAAAAAAAAAAAAAAAAAAAAAAAAAAAAA
222222222211111111111111111111AAAAAAAAAAAAAAAAAAAAAAAAAAAAAAAAAA
22222222211111111111111111111AAAAAAAAAAAAAAAAAAAAAAAAAAAAAAAAAAA
2222222211111111111111111111AAAAAAAAAAAAAAAAAAAAAAAAAAAAAAAAAAAA
222222211111111111111111111AAAAAAAAAAAAAAAAAAAAAAAAAAAAAAAAAAAAA
22222211111111111111111111AAAAAAAAAAAAAAAAAAAAAAAAAAAAAAAAAAAAAA
2222211111111111111111111AAAAAAAAAAAAAAAAAAAAAAAAAAAAAAAAAAAAAAA
222221111111111111111111AAAAAAAAAAAAAAAAAAAAAAAAAAAAAAAAAAAAAAAA
222211111111111111111111AAAAAAAAAAAAAAAAAAAAAAAAAAAAAAAAAAAAAAAA
22211111111111111111111AAAAAAAAAAAAAAAAAAAAAAAAAAAAAAAAAAAAAAAAA
2211111111111111111111AAAAAAAAAAAAAAAAAAAAAAAAAAAAAAAAAAAAAAAAAA
211111111111111111111AAAAAAAAAAAAAAAAAAAAAAAAAAAAAAAAAAAAAAAAAAA
11111111111111111111AAAAAAAAAAAAAAAAAAAAAAAAAAAAAAAAAAAAAAAAAAAA
1111111111111111111AAAAAAAAAAAAAAAAAAAAAAAAAAAAAAAAAAAAAAAAAAAAA
111111111111111111AAAAAAAAAAAAAAAAAAAAAAAAAAAAAAAAAAAAAAAAAAAAAA
11111111111111111AAAAAAAAAAAAAAAAAAAAAAAAAAAAAAAAAAAAAAAAAAAAAAA
1111111111111111AAAAAAAAAAAAAAAAAAAAAAAAAAAAAAAAAAAAAAAAAAAAAAAA
111111111111111AAAAAAAAAAAAAAAAAAAAAAAAAAAAAAAAAAAAAAAAAAAAAAAAA
11111111111111AAAAAAAAAAAAAAAAAAAAAAAAAAAAAAAAAAAAAAAAAAAAAAAAAA
1111111111111AAAAAAAAAAAAAAAAAAAAAAAAAAAAAAAAAAAAAAAAAAAAAAAAAAA
111111111111AAAAAAAAAAAAAAAAAAAAAAAAAAAAAAAAAAAAAAAAAAAAAAAAAAAA
11111111111AAAAAAAAAAAAAAAAAAAAAAAAAAAAAAAAAAAAAAAAAAAAAAAAAAAAA
1111111111AAAAAAAAAAAAAAAAAAAAAAAAAAAAAAAAAAAAAAAAAAAAAAAAAAAAAA
111111111AAAAAAAAAAAAAAAAAAAAAAAAAAAAAAAAAAAAAAAAAAAAAAAAAAAAAAA
11111111AAAAAAAAAAAAAAAAAAAAAAAAAAAAAAAAAAAAAAAAAAAAAAAAAAAAAAAA
1111111AAAAAAAAAAAAAAAAAAAAAAAAAAAAAAAAAAAAAAAAAAAAAAAAAAAAAAAAA
111111AAAAAAAAAAAAAAAAAAAAAAAAAAAAAAAAAAAAAAAAAAAAAAAAAAAAAAAAAA
11111AAAAAAAAAAAAAAAAAAAAAAAAAAAAAAAAAAAAAAAAAAAAAAAAAAAAAAAAAAA
1111AAAAAAAAAAAAAAAAAAAAAAAAAAAAAAAAAAAAAAAAAAAAAAAAAAAAAAAAAAAA
111AAAAAAAAAAAAAAAAAAAAAAAAAAAAAAAAAAAAAAAAAAAAAAAAAAAAAAAAAAAAA
11AAAAAAAAAAAAAAAAAAAAAAAAAAAAAAAAAAAAAAAAAAAAAAAAAAAAAAAAAAAAAA
1AAAAAAAAAAAAAAAAAAAAAAAAAAAAAAAAAAAAAAAAAAAAAAAAAAAAAAAAAAAAAAA
AAAAAAAAAAAAAAAAAAAAAAAAAAAAAAAAAAAAAAAAAAAAAAAAAAAAAAAAAAAAAAAA
IIIIIIIIIIIIIIIIIIIIIIIIIIIIIIIIIIIIIIIIIIIIIIIIIIIIIIIIIIIIIIIA
IIIIIIIIIIIIIIIIIIIIIIIIIIIIIIIIIIIII2IIIIII1II1II1IIIIII1II1IIA
IIIIIIIIIIIIIIIIIIIIIIIIIIIIIIIIIIIII2IIIIII1I11I11IIIII11I11IAA
IIIIIIIIIIIIIIIIIIIIIIIIIIIIIIIIIIII22IIIII11I11I11IIIII11I11IAA
IIIIIIIIIIIIIIIIIIIIIIIIIIIIIIIIIII222IIII111111111IIII111111AAA
IIIIIIIIIIIIIIIIIIIIIIIIIIIIIIIIII2222III1111111111III111111AAAA
IIIIIIIIIIIIIIIIIIIIIIIIIIIIIIIIII2222III1111111111III11111AAAAA
IIIIIIIIIIIIIIIIIIIIIIIIIIIIIIIIII2222III1111111111III1111AAAAAA
IIIIIIIIIIIIIIIIIIIIIIIIIIIIIIII2I2222I1I1111111111I1I1111AAAAAA
IIIIIIIIIIIIIIIIIIIIIIIIIIIIIII22I222211I111111111111I111AAAAAAA
IIIIIIIIIIIIIIIIIIIIIIIIIIIIII222I2221111111111111111111AAAAAAAA
IIIIIIIIIIIIIIIIIIIIIIIIIIIII2222I221111111111111111111AAAAAAAAA
IIIIIIIIIIIIIIIIIIIIIIIIIIII22222I21111111111111111111AAAAAAAAAA
IIIIIIIIIIIIIIIIIIIIIIIIIII222222I1111111111111111111AAAAAAAAAAA
IIIIIIIIIIIIIIIIIIIIIIIIII22222221111111111111111111AAAAAAAAAAAA
IIIIIIIIIIIIIIIIIIIIIIIII22222221111111111111111111AAAAAAAAAAAAA
IIIIIIIIIIIIIIIIIIIIIIIII2222222111111111111111111AAAAAAAAAAAAAA
IIIIIIIIIIIIIIIIIIIIIIIII222222211111111111111111AAAAAAAAAAAAAAA
IIIIIIIIIIIIIIIIIIIIIIIII22222221111111111111111AAAAAAAAAAAAAAAA
IIIIIIIIIIIIIIIIIIIIII2II22221221111111111111111AAAAAAAAAAAAAAAA
IIIIIIIIIIIIIIIIIIIIII2II2222121111111111111111AAAAAAAAAAAAAAAAA
IIIIIIIIIIIIIIIIIIIII22II2221121111111111111111AAAAAAAAAAAAAAAAA
IIIIIIIIIIIIIIIIIIII222II221111111111111111111AAAAAAAAAAAAAAAAAA
IIIIIIIIIIIIIIIIIII2222II21111111111111111111AAAAAAAAAAAAAAAAAAA
IIIIIIIIIIIIIIIIII22222II1111111111111111111AAAAAAAAAAAAAAAAAAAA
IIIIIIIIIIIIIIIII222222I1111111111111111111AAAAAAAAAAAAAAAAAAAAA
IIIIIIIIIIIIIIII22222221111111111111111111AAAAAAAAAAAAAAAAAAAAAA
IIIIIIIIIIIIIII22222221111111111111111111AAAAAAAAAAAAAAAAAAAAAAA
IIIIIIIIIIIIIII2222222111111111111111111AAAAAAAAAAAAAAAAAAAAAAAA
IIIIIIIIIIIIII22222221111111111111111111AAAAAAAAAAAAAAAAAAAAAAAA
IIIIIIIIIIIIII2222222111111111111111111AAAAAAAAAAAAAAAAAAAAAAAAA
IIIIIIIIIIIII22222221111111111111111111AAAAAAAAAAAAAAAAAAAAAAAAA
IIIIIIIIIIIII2222222111111111111111111AAAAAAAAAAAAAAAAAAAAAAAAAA
IIIIIIIIIIIII222222211111111111111111AAAAAAAAAAAAAAAAAAAAAAAAAAA
IIIIIIIIIIIII22222221111111111111111AAAAAAAAAAAAAAAAAAAAAAAAAAAA
IIIIIIIIIIIII22221221111111111111111AAAAAAAAAAAAAAAAAAAAAAAAAAAA
IIIIIIIIIIIII2222122111111111111111AAAAAAAAAAAAAAAAAAAAAAAAAAAAA
IIIIIIIII2III2221121111111111111111AAAAAAAAAAAAAAAAAAAAAAAAAAAAA
IIIIIIIII2III222112111111111111111AAAAAAAAAAAAAAAAAAAAAAAAAAAAAA
IIIIIIIII2III221111111111111111111AAAAAAAAAAAAAAAAAAAAAAAAAAAAAA
IIIIIII2I2III21111111111111111111AAAAAAAAAAAAAAAAAAAAAAAAAAAAAAA
IIIIII22I2III1111111111111111111AAAAAAAAAAAAAAAAAAAAAAAAAAAAAAAA
IIIIII22I2III111111111111111111AAAAAAAAAAAAAAAAAAAAAAAAAAAAAAAAA
IIIII222I2II1111111111111111111AAAAAAAAAAAAAAAAAAAAAAAAAAAAAAAAA
IIII2222I2I1111111111111111111AAAAAAAAAAAAAAAAAAAAAAAAAAAAAAAAAA
III22222I21111111111111111111AAAAAAAAAAAAAAAAAAAAAAAAAAAAAAAAAAA
II222222I1111111111111111111AAAAAAAAAAAAAAAAAAAAAAAAAAAAAAAAAAAA
I22222221111111111111111111AAAAAAAAAAAAAAAAAAAAAAAAAAAAAAAAAAAAA
22222221111111111111111111AAAAAAAAAAAAAAAAAAAAAAAAAAAAAAAAAAAAAA
2222221111111111111111111AAAAAAAAAAAAAAAAAAAAAAAAAAAAAAAAAAAAAAA
222221111111111111111111AAAAAAAAAAAAAAAAAAAAAAAAAAAAAAAAAAAAAAAA
22222111111111111111111AAAAAAAAAAAAAAAAAAAAAAAAAAAAAAAAAAAAAAAAA
22221111111111111111111AAAAAAAAAAAAAAAAAAAAAAAAAAAAAAAAAAAAAAAAA
2221111111111111111111AAAAAAAAAAAAAAAAAAAAAAAAAAAAAAAAAAAAAAAAAA
221111111111111111111AAAAAAAAAAAAAAAAAAAAAAAAAAAAAAAAAAAAAAAAAAA
21111111111111111111AAAAAAAAAAAAAAAAAAAAAAAAAAAAAAAAAAAAAAAAAAAA
1111111111111111111AAAAAAAAAAAAAAAAAAAAAAAAAAAAAAAAAAAAAAAAAAAAA
111111111111111111AAAAAAAAAAAAAAAAAAAAAAAAAAAAAAAAAAAAAAAAAAAAAA
11111111111111111AAAAAAAAAAAAAAAAAAAAAAAAAAAAAAAAAAAAAAAAAAAAAAA
1111111111111111AAAAAAAAAAAAAAAAAAAAAAAAAAAAAAAAAAAAAAAAAAAAAAAA
111111111111111AAAAAAAAAAAAAAAAAAAAAAAAAAAAAAAAAAAAAAAAAAAAAAAAA
11111111111111AAAAAAAAAAAAAAAAAAAAAAAAAAAAAAAAAAAAAAAAAAAAAAAAAA
1111111111111AAAAAAAAAAAAAAAAAAAAAAAAAAAAAAAAAAAAAAAAAAAAAAAAAAA
111111111111AAAAAAAAAAAAAAAAAAAAAAAAAAAAAAAAAAAAAAAAAAAAAAAAAAAA
11111111111AAAAAAAAAAAAAAAAAAAAAAAAAAAAAAAAAAAAAAAAAAAAAAAAAAAAA
1111111111AAAAAAAAAAAAAAAAAAAAAAAAAAAAAAAAAAAAAAAAAAAAAAAAAAAAAA
111111111AAAAAAAAAAAAAAAAAAAAAAAAAAAAAAAAAAAAAAAAAAAAAAAAAAAAAAA
11111111AAAAAAAAAAAAAAAAAAAAAAAAAAAAAAAAAAAAAAAAAAAAAAAAAAAAAAAA
1111111AAAAAAAAAAAAAAAAAAAAAAAAAAAAAAAAAAAAAAAAAAAAAAAAAAAAAAAAA
111111AAAAAAAAAAAAAAAAAAAAAAAAAAAAAAAAAAAAAAAAAAAAAAAAAAAAAAAAAA
11111AAAAAAAAAAAAAAAAAAAAAAAAAAAAAAAAAAAAAAAAAAAAAAAAAAAAAAAAAAA
1111AAAAAAAAAAAAAAAAAAAAAAAAAAAAAAAAAAAAAAAAAAAAAAAAAAAAAAAAAAAA
111AAAAAAAAAAAAAAAAAAAAAAAAAAAAAAAAAAAAAAAAAAAAAAAAAAAAAAAAAAAAA
11AAAAAAAAAAAAAAAAAAAAAAAAAAAAAAAAAAAAAAAAAAAAAAAAAAAAAAAAAAAAAA
1AAAAAAAAAAAAAAAAAAAAAAAAAAAAAAAAAAAAAAAAAAAAAAAAAAAAAAAAAAAAAAA
AAAAAAAAAAAAAAAAAAAAAAAAAAAAAAAAAAAAAAAAAAAAAAAAAAAAAAAAAAAAAAAA
IIIIIIIIIIIIIIIIIIIIIIIIIIIIIIIIIIII11IIIII1IIIIII1II1IIIIII1IIA
IIIIIIIIIIIIIIIIIIIIIIIIIIIIIIIIIII111IIII11IIIII11I11IIIII11IAA
IIIIIIIIIIIIIIIIIIIIIIIIIIIIIIIIII1111III111IIII111111IIII111AAA
IIIIIIIIIIIIIIIIIIIIIIIIIIIIIIIII11111II1111III1111111III111AAAA
IIIIIIIIIIIIIIIIIIIIIIIIIIIIIIIII11111II1111III1111111III11AAAAA
IIIIIIIIIIIIIIIIIIIIIIIIIIIIIII1I111111I1111I1I1111111I1I1AAAAAA
IIIIIIIIIIIIIIIIIIIIIIIIIIIIIII11111111I1111I1I1111111I1I1AAAAAA
IIIIIIIIIIIIIIIIIIIIIIIIIIIIII111111111I111111I111111111IAAAAAAA
IIIIIIIIIIIIIIIIIIIIIIIIIIIIII111111111I111111I111111111AAAAAAAA
IIIIIIIIIIIIIIIIIIIIIIIIIIIII1111111111I1111111111111111AAAAAAAA
IIIIIIIIIIIIIIIIIIIIIIIIIIII11111111111I111111111111111AAAAAAAAA
IIIIIIIIIIIIIIIIIIIIIIIIIII111111111111I11111111111111AAAAAAAAAA
IIIIIIIIIIIIIIIIIIIIIIIIII1111111111111I1111111111111AAAAAAAAAAA
IIIIIIIIIIIIIIIIIIIIIIIII111111111111111111111111111AAAAAAAAAAAA
IIIIIIIIIIIIIIIIIIIIIIII111111111111111111111111111AAAAAAAAAAAAA
IIIIIIIIIIIIIIIIIIIIIIII11111111111111111111111111AAAAAAAAAAAAAA
IIIIIIIIIIIIIIIIIIIIIIII1111111111111111111111111AAAAAAAAAAAAAAA
IIIIIIIIIIIIIIIIIIIIII111111111111111111111111111AAAAAAAAAAAAAAA
IIIIIIIIIIIIIIIIIIIII111111111111111111111111111AAAAAAAAAAAAAAAA
IIIIIIIIIIIIIIIIIIII111111111111111111111111111AAAAAAAAAAAAAAAAA
IIIIIIIIIIIIIIIIIII111111111111111111111111111AAAAAAAAAAAAAAAAAA
IIIIIIIIIIIIIIIIIII11111111111111111111111111AAAAAAAAAAAAAAAAAAA
IIIIIIIIIIIIIIIII1I1111111111111111111111111AAAAAAAAAAAAAAAAAAAA
IIIIIIIIIIIIIIIII111111111111111111111111111AAAAAAAAAAAAAAAAAAAA
IIIIIIIIIIIIIIII111111111111111111111111111AAAAAAAAAAAAAAAAAAAAA
IIIIIIIIIIIIIIII11111111111111111111111111AAAAAAAAAAAAAAAAAAAAAA
IIIIIIIIIIIIIII111111111111111111111111111AAAAAAAAAAAAAAAAAAAAAA
IIIIIIIIIIIIII111111111111111111111111111AAAAAAAAAAAAAAAAAAAAAAA
IIIIIIIIIIIIII11111111111111111111111111AAAAAAAAAAAAAAAAAAAAAAAA
IIIIIIIIIIIII111111111111111111111111111AAAAAAAAAAAAAAAAAAAAAAAA
IIIIIIIIIIII111111111111111111111111111AAAAAAAAAAAAAAAAAAAAAAAAA
IIIIIIIIIIII11111111111111111111111111AAAAAAAAAAAAAAAAAAAAAAAAAA
IIIIIIIIIIII1111111111111111111111111AAAAAAAAAAAAAAAAAAAAAAAAAAA
IIIIIIIIIIII111111111111111111111111AAAAAAAAAAAAAAAAAAAAAAAAAAAA
IIIIIIIIIIII11111111111111111111111AAAAAAAAAAAAAAAAAAAAAAAAAAAAA
IIIIIIIIIIII1111111111111111111111AAAAAAAAAAAAAAAAAAAAAAAAAAAAAA
IIIIIIIIIIII111111111111111111111AAAAAAAAAAAAAAAAAAAAAAAAAAAAAAA
IIIIIIIIIIII11111111111111111111AAAAAAAAAAAAAAAAAAAAAAAAAAAAAAAA
IIIIIIIIIIII1111111111111111111AAAAAAAAAAAAAAAAAAAAAAAAAAAAAAAAA
IIIIIIIIIIII111111111111111111AAAAAAAAAAAAAAAAAAAAAAAAAAAAAAAAAA
IIIIIIIIIIII11111111111111111AAAAAAAAAAAAAAAAAAAAAAAAAAAAAAAAAAA
IIIIIIIIIIII1111111111111111AAAAAAAAAAAAAAAAAAAAAAAAAAAAAAAAAAAA
IIIIIIIIIIII111111111111111AAAAAAAAAAAAAAAAAAAAAAAAAAAAAAAAAAAAA
IIIIIIIIIIII11111111111111AAAAAAAAAAAAAAAAAAAAAAAAAAAAAAAAAAAAAA
IIIIIIIIIIII1111111111111AAAAAAAAAAAAAAAAAAAAAAAAAAAAAAAAAAAAAAA
IIIIIIIIIIII111111111111AAAAAAAAAAAAAAAAAAAAAAAAAAAAAAAAAAAAAAAA
IIIIIIIIIIII11111111111AAAAAAAAAAAAAAAAAAAAAAAAAAAAAAAAAAAAAAAAA
IIIIIIIIIIII1111111111AAAAAAAAAAAAAAAAAAAAAAAAAAAAAAAAAAAAAAAAAA
IIIIIIIIIIII111111111AAAAAAAAAAAAAAAAAAAAAAAAAAAAAAAAAAAAAAAAAAA
IIIIIIIIIIII11111111AAAAAAAAAAAAAAAAAAAAAAAAAAAAAAAAAAAAAAAAAAAA
IIIIIIIIIIII1111111AAAAAAAAAAAAAAAAAAAAAAAAAAAAAAAAAAAAAAAAAAAAA
IIIIIIIIIII1111111AAAAAAAAAAAAAAAAAAAAAAAAAAAAAAAAAAAAAAAAAAAAAA
IIIIIIIIII1111111AAAAAAAAAAAAAAAAAAAAAAAAAAAAAAAAAAAAAAAAAAAAAAA
IIIIIIIII1111111AAAAAAAAAAAAAAAAAAAAAAAAAAAAAAAAAAAAAAAAAAAAAAAA
IIIIIIII1111111AAAAAAAAAAAAAAAAAAAAAAAAAAAAAAAAAAAAAAAAAAAAAAAAA
IIIIIII1111111AAAAAAAAAAAAAAAAAAAAAAAAAAAAAAAAAAAAAAAAAAAAAAAAAA
IIIIII1111111AAAAAAAAAAAAAAAAAAAAAAAAAAAAAAAAAAAAAAAAAAAAAAAAAAA
IIIIII111111AAAAAAAAAAAAAAAAAAAAAAAAAAAAAAAAAAAAAAAAAAAAAAAAAAAA
IIIIII11111AAAAAAAAAAAAAAAAAAAAAAAAAAAAAAAAAAAAAAAAAAAAAAAAAAAAA
IIII1I11111AAAAAAAAAAAAAAAAAAAAAAAAAAAAAAAAAAAAAAAAAAAAAAAAAAAAA
III11I1111AAAAAAAAAAAAAAAAAAAAAAAAAAAAAAAAAAAAAAAAAAAAAAAAAAAAAA
II111I111AAAAAAAAAAAAAAAAAAAAAAAAAAAAAAAAAAAAAAAAAAAAAAAAAAAAAAA
I1111111AAAAAAAAAAAAAAAAAAAAAAAAAAAAAAAAAAAAAAAAAAAAAAAAAAAAAAAA
1111111AAAAAAAAAAAAAAAAAAAAAAAAAAAAAAAAAAAAAAAAAAAAAAAAAAAAAAAAA
111111AAAAAAAAAAAAAAAAAAAAAAAAAAAAAAAAAAAAAAAAAAAAAAAAAAAAAAAAAA
11111AAAAAAAAAAAAAAAAAAAAAAAAAAAAAAAAAAAAAAAAAAAAAAAAAAAAAAAAAAA
1111AAAAAAAAAAAAAAAAAAAAAAAAAAAAAAAAAAAAAAAAAAAAAAAAAAAAAAAAAAAA
111AAAAAAAAAAAAAAAAAAAAAAAAAAAAAAAAAAAAAAAAAAAAAAAAAAAAAAAAAAAAA
11AAAAAAAAAAAAAAAAAAAAAAAAAAAAAAAAAAAAAAAAAAAAAAAAAAAAAAAAAAAAAA
1AAAAAAAAAAAAAAAAAAAAAAAAAAAAAAAAAAAAAAAAAAAAAAAAAAAAAAAAAAAAAAA
AAAAAAAAAAAAAAAAAAAAAAAAAAAAAAAAAAAAAAAAAAAAAAAAAAAAAAAAAAAAAAAA
IIIIIIIIIIIIIIIIIIIIIIIIIIIIIIIIIIIIIIIIIIIIIIIIIIIIIIIII2II1IIA
IIIIIIIIIIIIIIIIIIIIIIIIIIIIIIIIIIIIIIIIIIIIIIIIIIIIIIII22I11IAA
IIIIIIIIIIIIIIIIIIIIIIIIIIIIIIII2II1IIIIII1II1IIIIII1III22I11IAA
IIIIIIIIIIIIIIIIIIIIIIIIIIIIIIII2II1IIIIII1II1IIIIII1III22I11AAA
IIIIIIIIIIIIIIIIIIIIIIIIIIIIIII22I11IIIII11I11IIIII11III22I11AAA
IIIIIIIIIIIIIIIIIIIIIIIIIIIIII222111IIII111111IIII111III22I1AAAA
IIIIIIIIIIIIIIIIIIIIIIIIIIIIII222111IIII111111IIII111III22IAAAAA
IIIIIIIIIIIIIIIIIIIIIIIIIIIII2221111III1111111III1111III22IAAAAA
IIIIIIIIIIIIIIIIIIIIIIIIIIII22211111II11111111II11111III22AAAAAA
IIIIIIIIIIIIIIIIIIIIIIIIIII222111111I111111111I111111III2AAAAAAA
IIIIIIIIIIIIIIIIIIIIIIIIII222111111111111111111111111IIIAAAAAAAA
IIIIIIIIIIIIIIIIIIIIIIIIII222111111111111111111111111IIAAAAAAAAA
IIIIIIIIIIIIIIIIIIIIIIIII2221111111111111111111111111IIAAAAAAAAA
IIIIIIIIIIIIIIIIIIIIIIII22211111111111111111111111111IAAAAAAAAAA
IIIIIIIIIIIIIIIIIIIIIII222111111111111111111111111111AAAAAAAAAAA
IIIIIIIIIIIIIIIIIIIIII222111111111111111111111111111AAAAAAAAAAAA
IIIIIIIIIIIIIIIIIIIII222111111111111111111111111111AAAAAAAAAAAAA
IIIIIIIIIIIIIIIIIIII222111111111111111111111111111AAAAAAAAAAAAAA
IIIIIIIIIIIIIIIIIII222111111111111111111111111111AAAAAAAAAAAAAAA
IIIIIIIIIIIIIIIIII222111111111111111111111111111AAAAAAAAAAAAAAAA
IIIIIIIIIIIIIIIII222111111111111111111111111111AAAAAAAAAAAAAAAAA
IIIIIIIIIIIIIIII222111111111111111111111111111AAAAAAAAAAAAAAAAAA
IIIIIIIIIIIIIII222111111111111111111111111111AAAAAAAAAAAAAAAAAAA
IIIIIIIIIIIIIII22211111111111111111111111111AAAAAAAAAAAAAAAAAAAA
IIIIIIIIIIIIIII2121111111111111111111111111AAAAAAAAAAAAAAAAAAAAA
IIIIIIIIIIIII2I2121111111111111111111111111AAAAAAAAAAAAAAAAAAAAA
IIIIIIIIIIII22I112111111111111111111111111AAAAAAAAAAAAAAAAAAAAAA
IIIIIIIIIII222111211111111111111111111111AAAAAAAAAAAAAAAAAAAAAAA
IIIIIIIIIII22111121111111111111111111111AAAAAAAAAAAAAAAAAAAAAAAA
IIIIIIIII2I2111112111111111111111111111AAAAAAAAAAAAAAAAAAAAAAAAA
IIIIIIII22I111111211111111111111111111AAAAAAAAAAAAAAAAAAAAAAAAAA
IIIIIII222111111111111111111111111111AAAAAAAAAAAAAAAAAAAAAAAAAAA
IIIIIII22211111111111111111111111111AAAAAAAAAAAAAAAAAAAAAAAAAAAA
IIIIIII22111111111111111111111111111AAAAAAAAAAAAAAAAAAAAAAAAAAAA
IIIIIII2211111111111111111111111111AAAAAAAAAAAAAAAAAAAAAAAAAAAAA
IIIII2I2111111111111111111111111111AAAAAAAAAAAAAAAAAAAAAAAAAAAAA
IIII22I111111111111111111111111111AAAAAAAAAAAAAAAAAAAAAAAAAAAAAA
III222111111111111111111111111111AAAAAAAAAAAAAAAAAAAAAAAAAAAAAAA
II222111111111111111111111111111AAAAAAAAAAAAAAAAAAAAAAAAAAAAAAAA
I222111111111111111111111111111AAAAAAAAAAAAAAAAAAAAAAAAAAAAAAAAA
I22211111111111111111111111111AAAAAAAAAAAAAAAAAAAAAAAAAAAAAAAAAA
222111111111111111111111111111AAAAAAAAAAAAAAAAAAAAAAAAAAAAAAAAAA
22111111111111111111111111111AAAAAAAAAAAAAAAAAAAAAAAAAAAAAAAAAAA
2111111111111111111111111111AAAAAAAAAAAAAAAAAAAAAAAAAAAAAAAAAAAA
111111111111111111111111111AAAAAAAAAAAAAAAAAAAAAAAAAAAAAAAAAAAAA
11111111111111111111111111AAAAAAAAAAAAAAAAAAAAAAAAAAAAAAAAAAAAAA
1111111111111111111111111AAAAAAAAAAAAAAAAAAAAAAAAAAAAAAAAAAAAAAA
111111111111111111111111AAAAAAAAAAAAAAAAAAAAAAAAAAAAAAAAAAAAAAAA
11111111111111111111111AAAAAAAAAAAAAAAAAAAAAAAAAAAAAAAAAAAAAAAAA
1111111111111111111111AAAAAAAAAAAAAAAAAAAAAAAAAAAAAAAAAAAAAAAAAA
111111111111111111111AAAAAAAAAAAAAAAAAAAAAAAAAAAAAAAAAAAAAAAAAAA
11111111111111111111AAAAAAAAAAAAAAAAAAAAAAAAAAAAAAAAAAAAAAAAAAAA
1111111111111111111AAAAAAAAAAAAAAAAAAAAAAAAAAAAAAAAAAAAAAAAAAAAA
111111111111111111AAAAAAAAAAAAAAAAAAAAAAAAAAAAAAAAAAAAAAAAAAAAAA
11111111111111111AAAAAAAAAAAAAAAAAAAAAAAAAAAAAAAAAAAAAAAAAAAAAAA
1111111111111111AAAAAAAAAAAAAAAAAAAAAAAAAAAAAAAAAAAAAAAAAAAAAAAA
111111111111111AAAAAAAAAAAAAAAAAAAAAAAAAAAAAAAAAAAAAAAAAAAAAAAAA
11111111111111AAAAAAAAAAAAAAAAAAAAAAAAAAAAAAAAAAAAAAAAAAAAAAAAAA
1111111111111AAAAAAAAAAAAAAAAAAAAAAAAAAAAAAAAAAAAAAAAAAAAAAAAAAA
111111111111AAAAAAAAAAAAAAAAAAAAAAAAAAAAAAAAAAAAAAAAAAAAAAAAAAAA
11111111111AAAAAAAAAAAAAAAAAAAAAAAAAAAAAAAAAAAAAAAAAAAAAAAAAAAAA
1111111111AAAAAAAAAAAAAAAAAAAAAAAAAAAAAAAAAAAAAAAAAAAAAAAAAAAAAA
111111111AAAAAAAAAAAAAAAAAAAAAAAAAAAAAAAAAAAAAAAAAAAAAAAAAAAAAAA
11111111AAAAAAAAAAAAAAAAAAAAAAAAAAAAAAAAAAAAAAAAAAAAAAAAAAAAAAAA
1111111AAAAAAAAAAAAAAAAAAAAAAAAAAAAAAAAAAAAAAAAAAAAAAAAAAAAAAAAA
111111AAAAAAAAAAAAAAAAAAAAAAAAAAAAAAAAAAAAAAAAAAAAAAAAAAAAAAAAAA
11111AAAAAAAAAAAAAAAAAAAAAAAAAAAAAAAAAAAAAAAAAAAAAAAAAAAAAAAAAAA
1111AAAAAAAAAAAAAAAAAAAAAAAAAAAAAAAAAAAAAAAAAAAAAAAAAAAAAAAAAAAA
111AAAAAAAAAAAAAAAAAAAAAAAAAAAAAAAAAAAAAAAAAAAAAAAAAAAAAAAAAAAAA
11AAAAAAAAAAAAAAAAAAAAAAAAAAAAAAAAAAAAAAAAAAAAAAAAAAAAAAAAAAAAAA
1AAAAAAAAAAAAAAAAAAAAAAAAAAAAAAAAAAAAAAAAAAAAAAAAAAAAAAAAAAAAAAA
AAAAAAAAAAAAAAAAAAAAAAAAAAAAAAAAAAAAAAAAAAAAAAAAAAAAAAAAAAAAAAAA
[MLOP] Prefetch Degree Mean: 4.03146
[MLOP] Prefetch Degree SD: 1.94203
[MLOP] Max Score Left Mean (%): 22.9827
[MLOP] Max Score Left SD (%): 13.3073
[MLOP] Max Score Right Mean (%): 66.475
[MLOP] Max Score Right SD (%): 10.66

DRAM Statistics
 CHANNEL 0
 RQ ROW_BUFFER_HIT:    2828632  ROW_BUFFER_MISS:    1209064
 DBUS_CONGESTED:       6164
 WQ ROW_BUFFER_HIT:      75012  ROW_BUFFER_MISS:     115811  FULL:          0

 AVG_CONGESTED_CYCLE: 5
 All warmup complete: 2
Channel 0 Bank busy for read cycles: 0
Channel 0 Bank busy for write cycles: 0
Channel 0
Rank 0
0banks busy for read cycles: 18132686
0banks busy for write cycles: 7802
1banks busy for read cycles: 24453953
1banks busy for write cycles: 2073495
2banks busy for read cycles: 19876194
2banks busy for write cycles: 1125141
3banks busy for read cycles: 15300328
3banks busy for write cycles: 849141
4banks busy for read cycles: 12094746
4banks busy for write cycles: 711558
5banks busy for read cycles: 9905996
5banks busy for write cycles: 673526
6banks busy for read cycles: 7923366
6banks busy for write cycles: 729291
7banks busy for read cycles: 5726687
7banks busy for write cycles: 1150403
8banks busy for read cycles: 3479390
8banks busy for write cycles: 5204435

CPU 0 Branch Prediction Accuracy: 97.6795% MPKI: 4.20592 Average ROB Occupancy at Mispredict: 48.2505
Branch types
NOT_BRANCH: 40937285 81.8746%
BRANCH_DIRECT_JUMP: 2039125 4.07825%
BRANCH_INDIRECT: 0 0%
BRANCH_CONDITIONAL: 7022758 14.0455%
BRANCH_DIRECT_CALL: 392 0.000784%
BRANCH_INDIRECT_CALL: 0 0%
BRANCH_RETURN: 392 0.000784%
BRANCH_OTHER: 0 0%

DRAM PAGES: 1048576
Allocated PAGES: 9879
