Initialize SIGNATURE TABLE
ST_SET: 1
ST_WAY: 256
ST_TAG_BIT: 16
ST_TAG_MASK: ffff

Initialize PATTERN TABLE
PT_SET: 512
PT_WAY: 4
SIG_DELTA_BIT: 7
C_SIG_BIT: 4
C_DELTA_BIT: 4

Initialize PREFETCH FILTER
FILTER_SET: 1024

*** ChampSim Multicore Out-of-Order Simulator ***

Warmup Instructions: 50000000
Simulation Instructions: 50000000
Number of CPUs: 1
LLC sets: 2048
LLC ways: 16
Off-chip DRAM Size: 4096 MB Channels: 1 Width: 64-bit Data Rate: 6400 MT/s
CPU 0 runs ./tracer/traces/621.wrf_s-6673B.champsimtrace.xz
.xz
CPU 0 Bimodal branch predictor
BTB has LRU replacement policy
ITLB has LRU replacement policy
DTLB has LRU replacement policy
STLB has LRU replacement policy
L1I has LRU replacement policy
CPU 0 L1D Berti prefetcher
L1D has LRU replacement policy
ST_WAYS: 256
PT_SETS: 512
Initialize SRRIP state for L2C
LLC has LRU replacement policy
Heartbeat CPU 0 instructions: 10000002 cycles: 3559655 heartbeat IPC: 2.80926 cumulative IPC: 2.80926 (Simulation time: 0 hr 0 min 55 sec) 
Heartbeat CPU 0 instructions: 20000003 cycles: 6464664 heartbeat IPC: 3.44233 cumulative IPC: 3.09374 (Simulation time: 0 hr 1 min 58 sec) 
Heartbeat CPU 0 instructions: 30000000 cycles: 9284497 heartbeat IPC: 3.54631 cumulative IPC: 3.23119 (Simulation time: 0 hr 2 min 55 sec) 
Heartbeat CPU 0 instructions: 40000002 cycles: 12169968 heartbeat IPC: 3.46564 cumulative IPC: 3.28678 (Simulation time: 0 hr 3 min 54 sec) 
Heartbeat CPU 0 instructions: 50000000 cycles: 15071726 heartbeat IPC: 3.44619 cumulative IPC: 3.31747 (Simulation time: 0 hr 5 min 0 sec) 

Warmup complete CPU 0 instructions: 50000004 cycles: 15071727 (Simulation time: 0 hr 5 min 0 sec) 

Heartbeat CPU 0 instructions: 60000001 cycles: 27913559 heartbeat IPC: 0.778705 cumulative IPC: 0.778705 (Simulation time: 0 hr 6 min 51 sec) 
Heartbeat CPU 0 instructions: 70000000 cycles: 43057022 heartbeat IPC: 0.660351 cumulative IPC: 0.714661 (Simulation time: 0 hr 8 min 32 sec) 
Heartbeat CPU 0 instructions: 80000000 cycles: 54886455 heartbeat IPC: 0.845349 cumulative IPC: 0.75349 (Simulation time: 0 hr 10 min 13 sec) 
Heartbeat CPU 0 instructions: 90000003 cycles: 67727514 heartbeat IPC: 0.778752 cumulative IPC: 0.759651 (Simulation time: 0 hr 12 min 16 sec) 
Heartbeat CPU 0 instructions: 100000000 cycles: 83566831 heartbeat IPC: 0.63134 cumulative IPC: 0.729979 (Simulation time: 0 hr 14 min 43 sec) 
Finished CPU 0 instructions: 50000002 cycles: 68495107 cumulative IPC: 0.729979 (Simulation time: 0 hr 14 min 43 sec) 

ChampSim completed all CPUs

Region of Interest Statistics

CPU 0 cumulative IPC: 0.729979 instructions: 50000002 cycles: 68495107
ITLB TOTAL     ACCESS:    7541173  HIT:    7541092  MISS:         81  HIT %:    99.9989  MISS %:  0.0010741   MPKI: 0.00162
ITLB LOAD TRANSLATION ACCESS:    7541173  HIT:    7541092  MISS:         81  HIT %:    99.9989  MISS %:  0.0010741   MPKI: 0.00162
ITLB PREFETCH  REQUESTED:          0  ISSUED:          0  USEFUL:          0  USELESS:          0
ITLB USEFUL LOAD PREFETCHES:          0 PREFETCH ISSUED TO LOWER LEVEL:          0  ACCURACY: -nan
ITLB TIMELY PREFETCHES:          0 LATE PREFETCHES: 0 DROPPED PREFETCHES: 0
ITLB PREFETCHES SAME FILL-ORIGIN LEVEL: 0 DIFFERENT FILL-ORIGIN LEVEL: 0
ITLB AVERAGE MISS LATENCY: 235.185 cycles
ITLB RQ	ACCESS:    9394083	FORWARD:          0	MERGED:    1852881	TO_CACHE:    7541202

DTLB TOTAL     ACCESS:   14874624  HIT:   14726530  MISS:     148094  HIT %:    99.0044  MISS %:   0.995615   MPKI: 2.96188
DTLB LOAD TRANSLATION ACCESS:   14874624  HIT:   14726530  MISS:     148094  HIT %:    99.0044  MISS %:   0.995615   MPKI: 2.96188
DTLB PREFETCH  REQUESTED:          0  ISSUED:          0  USEFUL:          0  USELESS:          0
DTLB USEFUL LOAD PREFETCHES:          0 PREFETCH ISSUED TO LOWER LEVEL:          0  ACCURACY: -nan
DTLB TIMELY PREFETCHES:          0 LATE PREFETCHES: 0 DROPPED PREFETCHES: 0
DTLB PREFETCHES SAME FILL-ORIGIN LEVEL: 0 DIFFERENT FILL-ORIGIN LEVEL: 0
DTLB AVERAGE MISS LATENCY: 15.4648 cycles
DTLB RQ	ACCESS:   16840431	FORWARD:          0	MERGED:    1947871	TO_CACHE:   14892560

STLB TOTAL     ACCESS:    9441475  HIT:    9426175  MISS:      15300  HIT %:    99.8379  MISS %:   0.162051   MPKI: 0.306
STLB LOAD TRANSLATION ACCESS:     148175  HIT:     144278  MISS:       3897  HIT %:      97.37  MISS %:       2.63   MPKI: 0.07794
STLB TRANSLATION FROM L1D PREFETCHER ACCESS:    9293300  HIT:    9281897  MISS:      11403  HIT %:    99.8773  MISS %:   0.122701   MPKI: 0.22806
STLB PREFETCH  REQUESTED:          0  ISSUED:          0  USEFUL:      11399  USELESS:          4
STLB USEFUL LOAD PREFETCHES:      11399 PREFETCH ISSUED TO LOWER LEVEL:          0  ACCURACY: inf
STLB TIMELY PREFETCHES:      11399 LATE PREFETCHES: 419 DROPPED PREFETCHES: 2150
STLB PREFETCHES SAME FILL-ORIGIN LEVEL: 0 DIFFERENT FILL-ORIGIN LEVEL: 0
STLB AVERAGE MISS LATENCY: 46597.6 cycles
STLB RQ	ACCESS:   10970154	FORWARD:          0	MERGED:    1523570	TO_CACHE:    9446584

STLB Hit, L1D data hit: 0
STLB Hit, L2C data hit: 0
STLB Hit, LLC data hit: 0
STLB Hit, LLC data miss: 0
STLB STLB hints to L2: 0
L1D TOTAL     ACCESS:   26422342  HIT:   24579131  MISS:    1843211  HIT %:     93.024  MISS %:    6.97596   MPKI: 36.8642
L1D LOAD      ACCESS:   13238642  HIT:   12958884  MISS:     279758  HIT %:    97.8868  MISS %:    2.11319   MPKI: 5.59516
L1D RFO       ACCESS:    3128511  HIT:    2919175  MISS:     209336  HIT %:    93.3088  MISS %:    6.69123   MPKI: 4.18672
L1D PREFETCH  ACCESS:   10055189  HIT:    8701072  MISS:    1354117  HIT %:    86.5332  MISS %:    13.4668   MPKI: 27.0823
AGUS PREFETCH L1 MISS: 0
L1D PREFETCH  REQUESTED:   22621417  ISSUED:   22621417  USEFUL:    1235224  USELESS:     118957
L1D USEFUL LOAD PREFETCHES:    1235224 PREFETCH ISSUED TO LOWER LEVEL:    1437831  ACCURACY: 85.9088
L1D TIMELY PREFETCHES:    1235224 LATE PREFETCHES: 63415 DROPPED PREFETCHES: 2316
L1D PREFETCHES SAME FILL-ORIGIN LEVEL: 1437831 DIFFERENT FILL-ORIGIN LEVEL: 0
L1D AVERAGE MISS LATENCY: 1.94854e+06 cycles
L1D RQ	ACCESS:   16715207	FORWARD:          0	MERGED:    3353003	TO_CACHE:   13354063
L1D WQ	ACCESS:    3489006	FORWARD:       8296	MERGED:       2638	TO_CACHE:    3486368
L1D PQ	ACCESS:   11799438	FORWARD:          0	MERGED:     977304	TO_CACHE:   10821979

L1D UNIQUE REGIONS ACCESSED: 0
L1D REGIONS CONFLICTS: 0
L1D Cross Page Prefetch Requests: 0
L1D Same Page Prefetch Requests: 20709142
L1D ROI Sum of L1D PQ occupancy: 204728740
L1D PREFETCHES PUSHED FROM L2C: 0
L1I TOTAL     ACCESS:    9392690  HIT:    9389912  MISS:       2778  HIT %:    99.9704  MISS %:  0.0295762   MPKI: 0.05556
L1I LOAD      ACCESS:    9392690  HIT:    9389912  MISS:       2778  HIT %:    99.9704  MISS %:  0.0295762   MPKI: 0.05556
L1I PREFETCH  REQUESTED:          0  ISSUED:          0  USEFUL:          0  USELESS:          0
L1I USEFUL LOAD PREFETCHES:          0 PREFETCH ISSUED TO LOWER LEVEL:          0  ACCURACY: -nan
L1I TIMELY PREFETCHES:          0 LATE PREFETCHES: 0 DROPPED PREFETCHES: 0
L1I PREFETCHES SAME FILL-ORIGIN LEVEL: 0 DIFFERENT FILL-ORIGIN LEVEL: 0
L1I AVERAGE MISS LATENCY: 217.116 cycles
L1I RQ	ACCESS:   12962713	FORWARD:          0	MERGED:    3568630	TO_CACHE:    9394083

BTB TOTAL     ACCESS:    2203352  HIT:    2197118  MISS:       6234  HIT %:    99.7171  MISS %:   0.282933   MPKI: 0.12468
BTB BRANCH_DIRECT_JUMP	ACCESS:       3916  HIT:       3875  MISS:         41
BTB BRANCH_INDIRECT	ACCESS:          0  HIT:          0  MISS:          0
BTB BRANCH_CONDITIONAL	ACCESS:    2181744  HIT:    2181272  MISS:        472
BTB BRANCH_DIRECT_CALL	ACCESS:       8847  HIT:       8610  MISS:        237
BTB BRANCH_INDIRECT_CALL	ACCESS:          0  HIT:          0  MISS:          0
BTB BRANCH_RETURN	ACCESS:       8845  HIT:       3361  MISS:       5484
BTB BRANCH_OTHER ACCESS:           0  HIT:          0  MISS:          0

L2C TOTAL     ACCESS:    4017482  HIT:    2668457  MISS:    1349025  HIT %:    66.4211  MISS %:    33.5789   MPKI: 26.9805
L2C LOAD      ACCESS:     219116  HIT:      87195  MISS:     131921  HIT %:     39.794  MISS %:     60.206   MPKI: 2.63842
L2C DATA LOAD MPKI: 2.58286
L2C INSTRUCTION LOAD MPKI: 0.05556
L2C RFO       ACCESS:     209234  HIT:     100643  MISS:     108591  HIT %:    48.1007  MISS %:    51.8993   MPKI: 2.17182
L2C PREFETCH  ACCESS:    2963859  HIT:    1866079  MISS:    1097780  HIT %:    62.9611  MISS %:    37.0389   MPKI: 21.9556
AGUS PREFETCH L1 MISS: 0
L2C DATA PREFETCH MPKI: 21.9556
L2C INSTRUCTION PREFETCH MPKI: 0
L2C WRITEBACK ACCESS:     607684  HIT:     599693  MISS:       7991  HIT %:     98.685  MISS %:    1.31499   MPKI: 0.15982
L2C LOAD TRANSLATION ACCESS:       3594  HIT:       2639  MISS:        955  HIT %:    73.4279  MISS %:    26.5721   MPKI: 0.0191
L2C TRANSLATION FROM L1D PREFETCHER ACCESS:      13995  HIT:      12208  MISS:       1787  HIT %:    87.2312  MISS %:    12.7688   MPKI: 0.03574
L2C PREFETCH  REQUESTED:    5362587  ISSUED:    4852872  USEFUL:      54258  USELESS:    1052417
L2C USEFUL LOAD PREFETCHES:      54258 PREFETCH ISSUED TO LOWER LEVEL:    4154782  ACCURACY: 1.30592
L2C TIMELY PREFETCHES:      54258 LATE PREFETCHES: 390 DROPPED PREFETCHES: 0
L2C PREFETCHES SAME FILL-ORIGIN LEVEL: 325852 DIFFERENT FILL-ORIGIN LEVEL: 3055803
L2C AVERAGE MISS LATENCY: 184.248 cycles
L2C RQ	ACCESS:     445960	FORWARD:          0	MERGED:          0	TO_CACHE:     445949
L2C WQ	ACCESS:     607692	FORWARD:         84	MERGED:          0	TO_CACHE:     607692
L2C PQ	ACCESS:    6270500	FORWARD:          0	MERGED:     209445	TO_CACHE:    6060982

L2C Instructions Evicting Data 2748
L2C Translations Evicting Data 2731
L2C Data Evicting Data 1330069
L2C Instructions Evicting Instructions 14
L2C Translations Evicting Instructions 8
L2C Data Evicting Instructions 2744
L2C Instructions Evicting Translations 16
L2C Translations Evicting Translations 3
L2C Data Evicting Translations 2701
L2C Dense regions hint from L2: 0
PSCL5 TOTAL     ACCESS:      17474  HIT:      17474  MISS:          0  HIT %:        100  MISS %:          0   MPKI: 0
PSCL5 LOAD TRANSLATION ACCESS:       3502  HIT:       3502  MISS:          0  HIT %:        100  MISS %:          0   MPKI: 0
PSCL5 TRANSLATION FROM L1D PREFETCHER ACCESS:      13972  HIT:      13972  MISS:          0  HIT %:        100  MISS %:          0   MPKI: 0
PSCL5 PREFETCH  REQUESTED:          0  ISSUED:          0  USEFUL:          0  USELESS:          0
PSCL5 USEFUL LOAD PREFETCHES:          0 PREFETCH ISSUED TO LOWER LEVEL:          0  ACCURACY: -nan
PSCL5 TIMELY PREFETCHES:          0 LATE PREFETCHES: 0 DROPPED PREFETCHES: 0
PSCL5 PREFETCHES SAME FILL-ORIGIN LEVEL: 0 DIFFERENT FILL-ORIGIN LEVEL: 0

PSCL4 TOTAL     ACCESS:      17474  HIT:      17474  MISS:          0  HIT %:        100  MISS %:          0   MPKI: 0
PSCL4 LOAD TRANSLATION ACCESS:       3502  HIT:       3502  MISS:          0  HIT %:        100  MISS %:          0   MPKI: 0
PSCL4 TRANSLATION FROM L1D PREFETCHER ACCESS:      13972  HIT:      13972  MISS:          0  HIT %:        100  MISS %:          0   MPKI: 0
PSCL4 PREFETCH  REQUESTED:          0  ISSUED:          0  USEFUL:          0  USELESS:          0
PSCL4 USEFUL LOAD PREFETCHES:          0 PREFETCH ISSUED TO LOWER LEVEL:          0  ACCURACY: -nan
PSCL4 TIMELY PREFETCHES:          0 LATE PREFETCHES: 0 DROPPED PREFETCHES: 0
PSCL4 PREFETCHES SAME FILL-ORIGIN LEVEL: 0 DIFFERENT FILL-ORIGIN LEVEL: 0

PSCL3 TOTAL     ACCESS:      17474  HIT:      17474  MISS:          0  HIT %:        100  MISS %:          0   MPKI: 0
PSCL3 LOAD TRANSLATION ACCESS:       3502  HIT:       3502  MISS:          0  HIT %:        100  MISS %:          0   MPKI: 0
PSCL3 TRANSLATION FROM L1D PREFETCHER ACCESS:      13972  HIT:      13972  MISS:          0  HIT %:        100  MISS %:          0   MPKI: 0
PSCL3 PREFETCH  REQUESTED:          0  ISSUED:          0  USEFUL:          0  USELESS:          0
PSCL3 USEFUL LOAD PREFETCHES:          0 PREFETCH ISSUED TO LOWER LEVEL:          0  ACCURACY: -nan
PSCL3 TIMELY PREFETCHES:          0 LATE PREFETCHES: 0 DROPPED PREFETCHES: 0
PSCL3 PREFETCHES SAME FILL-ORIGIN LEVEL: 0 DIFFERENT FILL-ORIGIN LEVEL: 0

PSCL2 TOTAL     ACCESS:      17474  HIT:      17359  MISS:        115  HIT %:    99.3419  MISS %:   0.658121   MPKI: 0.0023
PSCL2 LOAD TRANSLATION ACCESS:       3525  HIT:       3410  MISS:        115  HIT %:    96.7376  MISS %:    3.26241   MPKI: 0.0023
PSCL2 TRANSLATION FROM L1D PREFETCHER ACCESS:      13949  HIT:      13949  MISS:          0  HIT %:        100  MISS %:          0   MPKI: 0
PSCL2 PREFETCH  REQUESTED:          0  ISSUED:          0  USEFUL:          0  USELESS:          0
PSCL2 USEFUL LOAD PREFETCHES:          0 PREFETCH ISSUED TO LOWER LEVEL:          0  ACCURACY: -nan
PSCL2 TIMELY PREFETCHES:          0 LATE PREFETCHES: 0 DROPPED PREFETCHES: 0
PSCL2 PREFETCHES SAME FILL-ORIGIN LEVEL: 0 DIFFERENT FILL-ORIGIN LEVEL: 0

LLC TOTAL     ACCESS:    4254952  HIT:    2971731  MISS:    1283221  HIT %:    69.8417  MISS %:    30.1583   MPKI: 25.6644
LLC LOAD      ACCESS:     131531  HIT:      77584  MISS:      53947  HIT %:    58.9853  MISS %:    41.0147   MPKI: 1.07894
LLC RFO       ACCESS:     108591  HIT:       3354  MISS:     105237  HIT %:    3.08865  MISS %:    96.9113   MPKI: 2.10474
LLC PREFETCH  ACCESS:    3577795  HIT:    2457993  MISS:    1119802  HIT %:    68.7013  MISS %:    31.2987   MPKI: 22.396
AGUS PREFETCH L1 MISS: 0
LLC WRITEBACK ACCESS:     434293  HIT:     432526  MISS:       1767  HIT %:    99.5931  MISS %:   0.406868   MPKI: 0.03534
LLC LOAD TRANSLATION ACCESS:        955  HIT:         71  MISS:        884  HIT %:    7.43455  MISS %:    92.5654   MPKI: 0.01768
LLC TRANSLATION FROM L1D PREFETCHER ACCESS:       1787  HIT:        203  MISS:       1584  HIT %:    11.3598  MISS %:    88.6402   MPKI: 0.03168
LLC PREFETCH  REQUESTED:          0  ISSUED:          0  USEFUL:      74691  USELESS:    1062999
LLC USEFUL LOAD PREFETCHES:      74691 PREFETCH ISSUED TO LOWER LEVEL:    1130872  ACCURACY: 6.60473
LLC TIMELY PREFETCHES:      74691 LATE PREFETCHES: 11070 DROPPED PREFETCHES: 0
LLC PREFETCHES SAME FILL-ORIGIN LEVEL: 913518 DIFFERENT FILL-ORIGIN LEVEL: 0
LLC AVERAGE MISS LATENCY: 315.912 cycles
LLC RQ	ACCESS:     242872	FORWARD:          0	MERGED:          0	TO_CACHE:     242872
LLC WQ	ACCESS:     434301	FORWARD:          0	MERGED:          0	TO_CACHE:     434301
LLC PQ	ACCESS:    4150206	FORWARD:          0	MERGED:      24972	TO_CACHE:    4125234

LLC Dense regions hint to LLC: 0

RAW hits: 50515
Loads Generated: 16765722
Loads sent to L1D: 16715207
Stores Generated: 3489005
Stores sent to L1D: 3489006
Major fault: 0 Minor fault: 7750
Allocated PAGES: 7750
CPU 0 L1D berti prefetcher final stats
0-> Hits: 171198, Late: 1650, Early: 0, Misses: 1367
1-> Hits: 3, Late: 0, Early: 0, Misses: 0
2-> Hits: 6, Late: 2, Early: 0, Misses: 0
3-> Hits: 50817, Late: 2401, Early: 0, Misses: 22
4-> Hits: 35, Late: 0, Early: 0, Misses: 0
5-> Hits: 175, Late: 3, Early: 0, Misses: 0
6-> Hits: 1564, Late: 1, Early: 0, Misses: 0
7-> Hits: 4, Late: 0, Early: 0, Misses: 0
8-> Hits: 159, Late: 9, Early: 0, Misses: 4
9-> Hits: 53395, Late: 0, Early: 0, Misses: 0
a-> Hits: 24022, Late: 7, Early: 0, Misses: 0
b-> Hits: 3152, Late: 1, Early: 0, Misses: 0
c-> Hits: 1544, Late: 4, Early: 0, Misses: 0
d-> Hits: 124, Late: 0, Early: 0, Misses: 0
e-> Hits: 1560, Late: 1, Early: 0, Misses: 0
10-> Hits: 23097, Late: 1699, Early: 0, Misses: 22
11-> Hits: 60, Late: 1, Early: 0, Misses: 0
12-> Hits: 17369, Late: 0, Early: 0, Misses: 0
13-> Hits: 57770, Late: 115, Early: 0, Misses: 119
14-> Hits: 1, Late: 0, Early: 0, Misses: 0
15-> Hits: 0, Late: 1, Early: 0, Misses: 0
16-> Hits: 11, Late: 0, Early: 0, Misses: 0
17-> Hits: 22477, Late: 8, Early: 0, Misses: 0
18-> Hits: 117, Late: 1, Early: 0, Misses: 0
19-> Hits: 1809, Late: 1, Early: 0, Misses: 9
1b-> Hits: 1632, Late: 2, Early: 0, Misses: 0
1c-> Hits: 1562, Late: 0, Early: 0, Misses: 0
1d-> Hits: 94135, Late: 1, Early: 0, Misses: 0
1e-> Hits: 4, Late: 0, Early: 0, Misses: 0
1f-> Hits: 5, Late: 0, Early: 0, Misses: 0
20-> Hits: 349, Late: 2, Early: 0, Misses: 1
21-> Hits: 64, Late: 0, Early: 0, Misses: 0
23-> Hits: 61, Late: 0, Early: 0, Misses: 0
24-> Hits: 3142, Late: 0, Early: 0, Misses: 0
25-> Hits: 110806, Late: 11, Early: 0, Misses: 0
26-> Hits: 121, Late: 0, Early: 0, Misses: 0
27-> Hits: 1564, Late: 0, Early: 0, Misses: 0
28-> Hits: 0, Late: 1, Early: 0, Misses: 0
29-> Hits: 2, Late: 0, Early: 0, Misses: 0
2a-> Hits: 82454, Late: 0, Early: 0, Misses: 0
2b-> Hits: 44, Late: 1, Early: 0, Misses: 48
2c-> Hits: 13, Late: 8, Early: 0, Misses: 0
2d-> Hits: 1, Late: 0, Early: 0, Misses: 0
2e-> Hits: 29, Late: 1, Early: 0, Misses: 0
2f-> Hits: 1338, Late: 673, Early: 0, Misses: 0
30-> Hits: 64, Late: 1, Early: 0, Misses: 0
32-> Hits: 3, Late: 0, Early: 0, Misses: 0
33-> Hits: 3166, Late: 0, Early: 0, Misses: 0
34-> Hits: 7, Late: 0, Early: 0, Misses: 0
35-> Hits: 118, Late: 0, Early: 0, Misses: 0
36-> Hits: 3, Late: 4, Early: 0, Misses: 4
38-> Hits: 89, Late: 0, Early: 0, Misses: 0
39-> Hits: 1, Late: 0, Early: 0, Misses: 0
3b-> Hits: 13, Late: 1, Early: 0, Misses: 22
3e-> Hits: 231, Late: 0, Early: 0, Misses: 0
3f-> Hits: 204, Late: 0, Early: 0, Misses: 0
40-> Hits: 437, Late: 7, Early: 0, Misses: 0
41-> Hits: 2, Late: 0, Early: 0, Misses: 0
43-> Hits: 60, Late: 1, Early: 0, Misses: 22
44-> Hits: 287, Late: 3, Early: 0, Misses: 0
45-> Hits: 1305, Late: 488, Early: 0, Misses: 0
46-> Hits: 19, Late: 0, Early: 0, Misses: 0
47-> Hits: 1, Late: 0, Early: 0, Misses: 0
48-> Hits: 114, Late: 0, Early: 0, Misses: 1
49-> Hits: 0, Late: 1, Early: 0, Misses: 0
4a-> Hits: 35764, Late: 0, Early: 0, Misses: 0
4b-> Hits: 147, Late: 1, Early: 0, Misses: 0
4e-> Hits: 1, Late: 0, Early: 0, Misses: 0
4f-> Hits: 1627, Late: 1, Early: 0, Misses: 0
50-> Hits: 0, Late: 3, Early: 0, Misses: 0
51-> Hits: 126, Late: 0, Early: 0, Misses: 0
52-> Hits: 3264, Late: 3, Early: 0, Misses: 0
53-> Hits: 61497, Late: 0, Early: 0, Misses: 0
54-> Hits: 289, Late: 0, Early: 0, Misses: 0
55-> Hits: 1, Late: 0, Early: 0, Misses: 0
56-> Hits: 1, Late: 0, Early: 0, Misses: 0
57-> Hits: 127, Late: 0, Early: 0, Misses: 0
58-> Hits: 122, Late: 0, Early: 0, Misses: 0
59-> Hits: 3267, Late: 263, Early: 0, Misses: 0
5a-> Hits: 1, Late: 0, Early: 0, Misses: 0
5b-> Hits: 7, Late: 0, Early: 0, Misses: 13
5d-> Hits: 1, Late: 2, Early: 0, Misses: 0
5e-> Hits: 60, Late: 1, Early: 0, Misses: 0
5f-> Hits: 309, Late: 0, Early: 0, Misses: 0
60-> Hits: 4, Late: 1, Early: 0, Misses: 0
61-> Hits: 0, Late: 2, Early: 0, Misses: 0
63-> Hits: 1359, Late: 0, Early: 0, Misses: 0
64-> Hits: 1621, Late: 2, Early: 0, Misses: 0
66-> Hits: 62, Late: 0, Early: 0, Misses: 0
67-> Hits: 1511, Late: 158, Early: 0, Misses: 0
68-> Hits: 60074, Late: 0, Early: 0, Misses: 0
69-> Hits: 1, Late: 0, Early: 0, Misses: 0
6a-> Hits: 1, Late: 0, Early: 0, Misses: 0
6b-> Hits: 278, Late: 0, Early: 0, Misses: 0
6c-> Hits: 61, Late: 0, Early: 0, Misses: 0
6d-> Hits: 100078, Late: 1101, Early: 0, Misses: 0
6e-> Hits: 1, Late: 0, Early: 0, Misses: 0
6f-> Hits: 2, Late: 0, Early: 0, Misses: 0
70-> Hits: 25225, Late: 2492, Early: 0, Misses: 0
71-> Hits: 1471, Late: 486, Early: 0, Misses: 0
72-> Hits: 113880, Late: 0, Early: 0, Misses: 0
73-> Hits: 117, Late: 0, Early: 0, Misses: 0
74-> Hits: 6255, Late: 901, Early: 0, Misses: 0
75-> Hits: 1581, Late: 0, Early: 0, Misses: 0
76-> Hits: 1, Late: 1, Early: 0, Misses: 0
77-> Hits: 231, Late: 0, Early: 0, Misses: 0
78-> Hits: 323, Late: 0, Early: 0, Misses: 1
79-> Hits: 25170, Late: 3946, Early: 0, Misses: 0
7a-> Hits: 96386, Late: 25, Early: 0, Misses: 0
7b-> Hits: 110, Late: 2, Early: 0, Misses: 0
7d-> Hits: 6151, Late: 1260, Early: 0, Misses: 0
7e-> Hits: 852, Late: 0, Early: 0, Misses: 0
7f-> Hits: 1593, Late: 0, Early: 0, Misses: 0
80-> Hits: 152, Late: 1, Early: 0, Misses: 1
81-> Hits: 59, Late: 0, Early: 0, Misses: 0
82-> Hits: 42246, Late: 0, Early: 0, Misses: 1
83-> Hits: 1415, Late: 179, Early: 0, Misses: 0
84-> Hits: 335, Late: 2, Early: 0, Misses: 0
85-> Hits: 7, Late: 0, Early: 0, Misses: 0
86-> Hits: 1504, Late: 2, Early: 0, Misses: 0
87-> Hits: 96745, Late: 0, Early: 0, Misses: 0
88-> Hits: 9, Late: 0, Early: 0, Misses: 0
89-> Hits: 1, Late: 1, Early: 0, Misses: 0
8a-> Hits: 55, Late: 0, Early: 0, Misses: 0
8b-> Hits: 1532, Late: 2, Early: 0, Misses: 0
8c-> Hits: 0, Late: 2, Early: 0, Misses: 0
8d-> Hits: 10, Late: 3, Early: 0, Misses: 2
8f-> Hits: 101516, Late: 1, Early: 0, Misses: 3
90-> Hits: 0, Late: 1, Early: 0, Misses: 0
91-> Hits: 113, Late: 0, Early: 0, Misses: 0
93-> Hits: 2754, Late: 2, Early: 0, Misses: 6
94-> Hits: 1, Late: 0, Early: 0, Misses: 0
95-> Hits: 3, Late: 2, Early: 0, Misses: 0
96-> Hits: 1, Late: 0, Early: 0, Misses: 0
97-> Hits: 293, Late: 0, Early: 0, Misses: 0
98-> Hits: 3135, Late: 0, Early: 0, Misses: 0
99-> Hits: 117, Late: 0, Early: 0, Misses: 0
9b-> Hits: 2, Late: 0, Early: 0, Misses: 0
9c-> Hits: 113882, Late: 2, Early: 0, Misses: 0
9d-> Hits: 1828, Late: 2, Early: 0, Misses: 0
9e-> Hits: 1, Late: 0, Early: 0, Misses: 0
9f-> Hits: 269, Late: 0, Early: 0, Misses: 0
a0-> Hits: 2270, Late: 134, Early: 0, Misses: 0
a1-> Hits: 0, Late: 2, Early: 0, Misses: 0
a3-> Hits: 1379, Late: 0, Early: 0, Misses: 0
a4-> Hits: 2384, Late: 0, Early: 0, Misses: 1
a5-> Hits: 4, Late: 2, Early: 0, Misses: 0
a6-> Hits: 4138, Late: 16, Early: 0, Misses: 0
a7-> Hits: 353, Late: 0, Early: 0, Misses: 0
a8-> Hits: 1, Late: 0, Early: 0, Misses: 1
a9-> Hits: 232, Late: 0, Early: 0, Misses: 0
aa-> Hits: 2, Late: 0, Early: 0, Misses: 0
ab-> Hits: 1621, Late: 0, Early: 0, Misses: 0
ac-> Hits: 114514, Late: 0, Early: 0, Misses: 1
ad-> Hits: 2, Late: 0, Early: 0, Misses: 0
ae-> Hits: 3134, Late: 0, Early: 0, Misses: 0
af-> Hits: 1012, Late: 0, Early: 0, Misses: 0
b0-> Hits: 8475, Late: 254, Early: 0, Misses: 0
b1-> Hits: 1474, Late: 2, Early: 0, Misses: 0
b2-> Hits: 3, Late: 0, Early: 0, Misses: 0
b3-> Hits: 0, Late: 1, Early: 0, Misses: 0
b4-> Hits: 3135, Late: 113, Early: 0, Misses: 0
b5-> Hits: 1632, Late: 0, Early: 0, Misses: 0
b6-> Hits: 989, Late: 11, Early: 0, Misses: 2
b7-> Hits: 629, Late: 0, Early: 0, Misses: 0
b8-> Hits: 437, Late: 0, Early: 0, Misses: 0
b9-> Hits: 98, Late: 0, Early: 0, Misses: 0
bc-> Hits: 408, Late: 0, Early: 0, Misses: 0
bd-> Hits: 3143, Late: 108, Early: 0, Misses: 0
be-> Hits: 116, Late: 0, Early: 0, Misses: 0
bf-> Hits: 310, Late: 0, Early: 0, Misses: 0
c0-> Hits: 0, Late: 1, Early: 0, Misses: 0
c1-> Hits: 1317, Late: 1, Early: 0, Misses: 0
c2-> Hits: 2, Late: 0, Early: 0, Misses: 0
c3-> Hits: 1595, Late: 0, Early: 0, Misses: 0
c4-> Hits: 2405, Late: 50, Early: 0, Misses: 0
c5-> Hits: 1, Late: 0, Early: 0, Misses: 0
c6-> Hits: 119, Late: 0, Early: 0, Misses: 0
c7-> Hits: 223, Late: 0, Early: 0, Misses: 16
c8-> Hits: 6426, Late: 0, Early: 0, Misses: 0
c9-> Hits: 2, Late: 0, Early: 0, Misses: 0
ca-> Hits: 1040, Late: 9, Early: 0, Misses: 0
cb-> Hits: 28, Late: 0, Early: 0, Misses: 0
cc-> Hits: 3, Late: 1, Early: 0, Misses: 0
cd-> Hits: 1562, Late: 0, Early: 0, Misses: 0
ce-> Hits: 0, Late: 2, Early: 0, Misses: 0
cf-> Hits: 1829, Late: 0, Early: 0, Misses: 0
d0-> Hits: 19466, Late: 3109, Early: 0, Misses: 13
d1-> Hits: 537, Late: 2711, Early: 0, Misses: 0
d2-> Hits: 3137, Late: 0, Early: 0, Misses: 0
d3-> Hits: 1622, Late: 29, Early: 0, Misses: 0
d4-> Hits: 3246, Late: 0, Early: 0, Misses: 0
d5-> Hits: 18651, Late: 3468, Early: 0, Misses: 0
d7-> Hits: 118, Late: 0, Early: 0, Misses: 0
d8-> Hits: 8, Late: 0, Early: 0, Misses: 0
da-> Hits: 17866, Late: 21, Early: 0, Misses: 0
dc-> Hits: 211, Late: 0, Early: 0, Misses: 0
dd-> Hits: 3249, Late: 139, Early: 0, Misses: 98
de-> Hits: 3, Late: 0, Early: 0, Misses: 0
df-> Hits: 82, Late: 0, Early: 0, Misses: 0
e0-> Hits: 19445, Late: 620, Early: 0, Misses: 1
e1-> Hits: 57, Late: 3, Early: 0, Misses: 1
e2-> Hits: 7007, Late: 64, Early: 0, Misses: 0
e4-> Hits: 635, Late: 2733, Early: 0, Misses: 0
e5-> Hits: 40741, Late: 308, Early: 0, Misses: 1
e8-> Hits: 371, Late: 3, Early: 0, Misses: 0
e9-> Hits: 4753, Late: 45, Early: 0, Misses: 1
ea-> Hits: 1, Late: 0, Early: 0, Misses: 0
eb-> Hits: 236, Late: 1, Early: 0, Misses: 0
ed-> Hits: 4760, Late: 371, Early: 0, Misses: 0
ee-> Hits: 2, Late: 0, Early: 0, Misses: 0
f0-> Hits: 2961, Late: 273, Early: 0, Misses: 0
f1-> Hits: 0, Late: 3, Early: 0, Misses: 0
f2-> Hits: 0, Late: 2, Early: 0, Misses: 0
f3-> Hits: 116, Late: 0, Early: 0, Misses: 0
f4-> Hits: 13877, Late: 2293, Early: 0, Misses: 0
f5-> Hits: 3282, Late: 1, Early: 0, Misses: 44
f6-> Hits: 82045, Late: 0, Early: 0, Misses: 0
f7-> Hits: 522, Late: 0, Early: 0, Misses: 0
f8-> Hits: 2986, Late: 243, Early: 0, Misses: 0
f9-> Hits: 0, Late: 2, Early: 0, Misses: 0
fa-> Hits: 116, Late: 0, Early: 0, Misses: 0
fb-> Hits: 104554, Late: 1106, Early: 0, Misses: 0
fc-> Hits: 60, Late: 0, Early: 0, Misses: 0
fd-> Hits: 120, Late: 1, Early: 0, Misses: 22
100-> Hits: 79646, Late: 8, Early: 0, Misses: 0
101-> Hits: 3189, Late: 0, Early: 0, Misses: 0
102-> Hits: 551, Late: 2709, Early: 0, Misses: 0
103-> Hits: 3787, Late: 0, Early: 0, Misses: 0
104-> Hits: 2, Late: 0, Early: 0, Misses: 0
105-> Hits: 171, Late: 19, Early: 0, Misses: 39
107-> Hits: 549, Late: 0, Early: 0, Misses: 0
108-> Hits: 9, Late: 0, Early: 0, Misses: 0
109-> Hits: 8, Late: 0, Early: 0, Misses: 0
10a-> Hits: 1620, Late: 0, Early: 0, Misses: 0
10b-> Hits: 179, Late: 0, Early: 0, Misses: 116
10c-> Hits: 8865, Late: 67, Early: 0, Misses: 59
10d-> Hits: 513, Late: 0, Early: 0, Misses: 0
10e-> Hits: 64578, Late: 1, Early: 0, Misses: 0
10f-> Hits: 4130, Late: 155, Early: 0, Misses: 1
110-> Hits: 1489, Late: 5, Early: 0, Misses: 0
112-> Hits: 2, Late: 8, Early: 0, Misses: 0
113-> Hits: 107997, Late: 1159, Early: 0, Misses: 0
114-> Hits: 97, Late: 0, Early: 0, Misses: 19
115-> Hits: 140, Late: 0, Early: 0, Misses: 0
116-> Hits: 1560, Late: 0, Early: 0, Misses: 0
117-> Hits: 4045, Late: 124, Early: 0, Misses: 0
118-> Hits: 13532, Late: 1, Early: 0, Misses: 0
11b-> Hits: 3182, Late: 0, Early: 0, Misses: 0
11c-> Hits: 105, Late: 0, Early: 0, Misses: 11
11d-> Hits: 116, Late: 0, Early: 0, Misses: 0
11e-> Hits: 71202, Late: 0, Early: 0, Misses: 0
11f-> Hits: 11, Late: 2, Early: 0, Misses: 0
120-> Hits: 64, Late: 1, Early: 0, Misses: 0
121-> Hits: 1, Late: 0, Early: 0, Misses: 0
122-> Hits: 5488, Late: 0, Early: 0, Misses: 0
123-> Hits: 878, Late: 0, Early: 0, Misses: 0
125-> Hits: 51, Late: 0, Early: 0, Misses: 0
126-> Hits: 104312, Late: 26, Early: 0, Misses: 0
127-> Hits: 12, Late: 0, Early: 0, Misses: 0
128-> Hits: 4746, Late: 0, Early: 0, Misses: 0
129-> Hits: 1578, Late: 2, Early: 0, Misses: 0
12a-> Hits: 1, Late: 0, Early: 0, Misses: 0
12b-> Hits: 118, Late: 0, Early: 0, Misses: 0
12c-> Hits: 3249, Late: 0, Early: 0, Misses: 1
12d-> Hits: 50, Late: 0, Early: 0, Misses: 3
12e-> Hits: 118, Late: 0, Early: 0, Misses: 0
12f-> Hits: 113886, Late: 0, Early: 0, Misses: 0
130-> Hits: 3631, Late: 1, Early: 0, Misses: 0
132-> Hits: 10, Late: 0, Early: 0, Misses: 0
133-> Hits: 177, Late: 0, Early: 0, Misses: 0
134-> Hits: 116, Late: 1, Early: 0, Misses: 0
135-> Hits: 8, Late: 0, Early: 0, Misses: 0
136-> Hits: 1, Late: 0, Early: 0, Misses: 0
137-> Hits: 124, Late: 0, Early: 0, Misses: 0
138-> Hits: 210, Late: 0, Early: 0, Misses: 0
139-> Hits: 1, Late: 0, Early: 0, Misses: 1
13a-> Hits: 3132, Late: 0, Early: 0, Misses: 0
13b-> Hits: 120, Late: 0, Early: 0, Misses: 0
13c-> Hits: 116, Late: 0, Early: 0, Misses: 0
13d-> Hits: 7, Late: 0, Early: 0, Misses: 0
13e-> Hits: 1, Late: 1, Early: 0, Misses: 0
13f-> Hits: 1, Late: 0, Early: 0, Misses: 0
140-> Hits: 5603, Late: 437, Early: 0, Misses: 1
141-> Hits: 2, Late: 0, Early: 0, Misses: 0
142-> Hits: 16, Late: 0, Early: 0, Misses: 0
143-> Hits: 1914, Late: 0, Early: 0, Misses: 1
144-> Hits: 5, Late: 1, Early: 0, Misses: 0
145-> Hits: 1744, Late: 0, Early: 0, Misses: 0
146-> Hits: 1672, Late: 0, Early: 0, Misses: 0
147-> Hits: 1563, Late: 0, Early: 0, Misses: 0
148-> Hits: 0, Late: 2, Early: 0, Misses: 0
149-> Hits: 3183, Late: 1, Early: 0, Misses: 2
14b-> Hits: 1475, Late: 131, Early: 0, Misses: 0
14c-> Hits: 3177, Late: 0, Early: 0, Misses: 0
14d-> Hits: 278, Late: 0, Early: 0, Misses: 118
14e-> Hits: 1931, Late: 0, Early: 0, Misses: 0
14f-> Hits: 2434, Late: 0, Early: 0, Misses: 0
150-> Hits: 79049, Late: 2, Early: 0, Misses: 0
151-> Hits: 99, Late: 0, Early: 0, Misses: 0
152-> Hits: 1555, Late: 0, Early: 0, Misses: 0
153-> Hits: 1393, Late: 55, Early: 0, Misses: 116
154-> Hits: 95, Late: 0, Early: 0, Misses: 0
155-> Hits: 9, Late: 0, Early: 0, Misses: 118
156-> Hits: 1, Late: 0, Early: 0, Misses: 0
157-> Hits: 84, Late: 0, Early: 0, Misses: 0
158-> Hits: 1598, Late: 0, Early: 0, Misses: 0
159-> Hits: 9, Late: 0, Early: 0, Misses: 0
15b-> Hits: 120, Late: 0, Early: 0, Misses: 0
15c-> Hits: 1596, Late: 0, Early: 0, Misses: 0
15d-> Hits: 5, Late: 0, Early: 0, Misses: 0
15e-> Hits: 114, Late: 0, Early: 0, Misses: 0
15f-> Hits: 0, Late: 3, Early: 0, Misses: 0
160-> Hits: 16539, Late: 1488, Early: 0, Misses: 1
161-> Hits: 1561, Late: 1, Early: 0, Misses: 0
164-> Hits: 5790, Late: 950, Early: 0, Misses: 0
165-> Hits: 93, Late: 0, Early: 0, Misses: 23
166-> Hits: 3, Late: 0, Early: 0, Misses: 0
167-> Hits: 1594, Late: 0, Early: 0, Misses: 5
168-> Hits: 40, Late: 0, Early: 0, Misses: 0
169-> Hits: 129793, Late: 1727, Early: 0, Misses: 0
16a-> Hits: 7, Late: 0, Early: 0, Misses: 0
16b-> Hits: 818, Late: 0, Early: 0, Misses: 0
16c-> Hits: 2913, Late: 0, Early: 0, Misses: 0
16d-> Hits: 5650, Late: 886, Early: 0, Misses: 0
16e-> Hits: 1590, Late: 0, Early: 0, Misses: 0
170-> Hits: 192154, Late: 22, Early: 0, Misses: 937
171-> Hits: 88, Late: 0, Early: 0, Misses: 0
172-> Hits: 3134, Late: 0, Early: 0, Misses: 0
173-> Hits: 1508, Late: 0, Early: 0, Misses: 0
174-> Hits: 4181, Late: 0, Early: 0, Misses: 4
175-> Hits: 189527, Late: 2416, Early: 0, Misses: 1
178-> Hits: 1, Late: 0, Early: 0, Misses: 0
179-> Hits: 2, Late: 0, Early: 0, Misses: 1
17a-> Hits: 191948, Late: 767, Early: 0, Misses: 95
17b-> Hits: 1, Late: 0, Early: 0, Misses: 0
17c-> Hits: 3214, Late: 0, Early: 0, Misses: 0
17d-> Hits: 1581, Late: 103, Early: 0, Misses: 0
17e-> Hits: 3, Late: 1, Early: 0, Misses: 0
180-> Hits: 6, Late: 3, Early: 0, Misses: 0
181-> Hits: 2, Late: 0, Early: 0, Misses: 0
182-> Hits: 0, Late: 2, Early: 0, Misses: 0
184-> Hits: 162525, Late: 2109, Early: 0, Misses: 20
185-> Hits: 75, Late: 1, Early: 0, Misses: 0
186-> Hits: 61, Late: 0, Early: 0, Misses: 0
18a-> Hits: 1611, Late: 2, Early: 0, Misses: 54
18c-> Hits: 1, Late: 0, Early: 0, Misses: 0
18d-> Hits: 4, Late: 0, Early: 0, Misses: 0
18e-> Hits: 1, Late: 0, Early: 0, Misses: 1
18f-> Hits: 1, Late: 0, Early: 0, Misses: 0
190-> Hits: 48250, Late: 327, Early: 0, Misses: 906
191-> Hits: 3, Late: 0, Early: 0, Misses: 0
192-> Hits: 1675, Late: 3, Early: 0, Misses: 0
193-> Hits: 2900, Late: 0, Early: 0, Misses: 0
195-> Hits: 47409, Late: 0, Early: 0, Misses: 86
196-> Hits: 60, Late: 1, Early: 0, Misses: 0
197-> Hits: 4, Late: 0, Early: 0, Misses: 0
198-> Hits: 3, Late: 2, Early: 0, Misses: 0
199-> Hits: 48028, Late: 0, Early: 0, Misses: 73
19a-> Hits: 1, Late: 0, Early: 0, Misses: 0
19d-> Hits: 1677, Late: 0, Early: 0, Misses: 0
19f-> Hits: 4623, Late: 0, Early: 0, Misses: 0
1a0-> Hits: 2, Late: 4, Early: 0, Misses: 1
1a1-> Hits: 24, Late: 0, Early: 0, Misses: 0
1a2-> Hits: 1, Late: 0, Early: 0, Misses: 0
1a3-> Hits: 1, Late: 0, Early: 0, Misses: 0
1a4-> Hits: 47645, Late: 1191, Early: 0, Misses: 32
1a5-> Hits: 3467, Late: 0, Early: 0, Misses: 0
1a6-> Hits: 0, Late: 0, Early: 0, Misses: 116
1a8-> Hits: 1, Late: 0, Early: 0, Misses: 0
1a9-> Hits: 46728, Late: 624, Early: 0, Misses: 529
1aa-> Hits: 1, Late: 0, Early: 0, Misses: 0
1ab-> Hits: 131, Late: 0, Early: 0, Misses: 0
1ac-> Hits: 10, Late: 0, Early: 0, Misses: 116
1ad-> Hits: 1594, Late: 0, Early: 0, Misses: 0
1af-> Hits: 1, Late: 0, Early: 0, Misses: 0
1b0-> Hits: 60, Late: 1, Early: 0, Misses: 0
1b1-> Hits: 3191, Late: 0, Early: 0, Misses: 0
1b3-> Hits: 47532, Late: 142, Early: 0, Misses: 37
1b4-> Hits: 1, Late: 0, Early: 0, Misses: 0
1b5-> Hits: 63, Late: 0, Early: 0, Misses: 55
1b7-> Hits: 48146, Late: 0, Early: 0, Misses: 0
1b9-> Hits: 1, Late: 0, Early: 0, Misses: 0
1bb-> Hits: 1540, Late: 1, Early: 0, Misses: 20
1bc-> Hits: 1592, Late: 1, Early: 0, Misses: 0
1bd-> Hits: 3299, Late: 0, Early: 0, Misses: 0
1be-> Hits: 2, Late: 0, Early: 0, Misses: 0
1bf-> Hits: 2, Late: 0, Early: 0, Misses: 0
1c0-> Hits: 4, Late: 0, Early: 0, Misses: 0
1c1-> Hits: 50954, Late: 313, Early: 0, Misses: 271
1c2-> Hits: 310, Late: 0, Early: 0, Misses: 0
1c3-> Hits: 11, Late: 0, Early: 0, Misses: 0
1c4-> Hits: 129, Late: 0, Early: 0, Misses: 0
1c5-> Hits: 87, Late: 0, Early: 0, Misses: 0
1c6-> Hits: 47919, Late: 261, Early: 0, Misses: 13
1c7-> Hits: 15, Late: 0, Early: 0, Misses: 0
1c8-> Hits: 2, Late: 2, Early: 0, Misses: 1
1c9-> Hits: 20, Late: 0, Early: 0, Misses: 0
1ca-> Hits: 3325, Late: 0, Early: 0, Misses: 0
1cb-> Hits: 119, Late: 1, Early: 0, Misses: 0
1cc-> Hits: 116, Late: 0, Early: 0, Misses: 0
1cd-> Hits: 124, Late: 0, Early: 0, Misses: 0
1ce-> Hits: 18, Late: 0, Early: 0, Misses: 0
1cf-> Hits: 1, Late: 0, Early: 0, Misses: 0
1d0-> Hits: 18168, Late: 1132, Early: 0, Misses: 1
1d1-> Hits: 109, Late: 0, Early: 0, Misses: 8
1d2-> Hits: 0, Late: 0, Early: 0, Misses: 1
1d3-> Hits: 62, Late: 0, Early: 0, Misses: 0
1d4-> Hits: 7, Late: 0, Early: 0, Misses: 0
1d5-> Hits: 4867, Late: 0, Early: 0, Misses: 0
1d6-> Hits: 1, Late: 0, Early: 0, Misses: 0
1d7-> Hits: 1, Late: 0, Early: 0, Misses: 0
1d8-> Hits: 12272, Late: 491, Early: 0, Misses: 0
1d9-> Hits: 1574, Late: 0, Early: 0, Misses: 19
1da-> Hits: 114, Late: 0, Early: 0, Misses: 2
1db-> Hits: 1560, Late: 0, Early: 0, Misses: 0
1dc-> Hits: 3, Late: 0, Early: 0, Misses: 0
1dd-> Hits: 14, Late: 0, Early: 0, Misses: 0
1de-> Hits: 3076, Late: 0, Early: 0, Misses: 57
1df-> Hits: 1594, Late: 0, Early: 0, Misses: 1
1e0-> Hits: 474, Late: 881, Early: 0, Misses: 0
1e1-> Hits: 1, Late: 1, Early: 0, Misses: 0
1e2-> Hits: 4, Late: 0, Early: 0, Misses: 0
1e3-> Hits: 113, Late: 0, Early: 0, Misses: 0
1e5-> Hits: 1645, Late: 0, Early: 0, Misses: 118
1e6-> Hits: 1, Late: 0, Early: 0, Misses: 0
1e9-> Hits: 2, Late: 1, Early: 0, Misses: 0
1ea-> Hits: 3, Late: 0, Early: 0, Misses: 0
1ec-> Hits: 1534, Late: 0, Early: 0, Misses: 1
1ed-> Hits: 1, Late: 0, Early: 0, Misses: 0
1ee-> Hits: 1024, Late: 275, Early: 0, Misses: 0
1ef-> Hits: 226, Late: 1, Early: 0, Misses: 0
1f0-> Hits: 3298, Late: 2, Early: 0, Misses: 0
1f2-> Hits: 3186, Late: 0, Early: 0, Misses: 0
1f4-> Hits: 65, Late: 0, Early: 0, Misses: 2
1f5-> Hits: 13, Late: 0, Early: 0, Misses: 0
1f6-> Hits: 1563, Late: 0, Early: 0, Misses: 0
1f8-> Hits: 66, Late: 3, Early: 0, Misses: 1
1f9-> Hits: 13, Late: 1, Early: 0, Misses: 0
1fa-> Hits: 3058, Late: 0, Early: 0, Misses: 0
1fb-> Hits: 3, Late: 1, Early: 0, Misses: 4
1fc-> Hits: 2525, Late: 0, Early: 0, Misses: 0
1fd-> Hits: 16, Late: 56, Early: 0, Misses: 57
1fe-> Hits: 2, Late: 0, Early: 0, Misses: 0
1ff-> Hits: 1, Late: 0, Early: 0, Misses: 0
200-> Hits: 198576, Late: 5, Early: 0, Misses: 1
201-> Hits: 11, Late: 3, Early: 0, Misses: 0
202-> Hits: 3189, Late: 0, Early: 0, Misses: 0
203-> Hits: 2, Late: 1, Early: 0, Misses: 0
204-> Hits: 157555, Late: 15381, Early: 0, Misses: 0
205-> Hits: 118, Late: 0, Early: 0, Misses: 0
206-> Hits: 3, Late: 0, Early: 0, Misses: 0
207-> Hits: 3, Late: 0, Early: 0, Misses: 0
208-> Hits: 181237, Late: 0, Early: 0, Misses: 0
209-> Hits: 13, Late: 0, Early: 0, Misses: 2
20a-> Hits: 6, Late: 0, Early: 0, Misses: 0
20b-> Hits: 131, Late: 0, Early: 0, Misses: 0
20c-> Hits: 1392, Late: 0, Early: 0, Misses: 0
20d-> Hits: 12, Late: 0, Early: 0, Misses: 3
20e-> Hits: 1410, Late: 0, Early: 0, Misses: 0
20f-> Hits: 3085, Late: 0, Early: 0, Misses: 57
210-> Hits: 2, Late: 0, Early: 0, Misses: 0
211-> Hits: 2, Late: 0, Early: 0, Misses: 0
212-> Hits: 1, Late: 0, Early: 0, Misses: 0
213-> Hits: 2, Late: 0, Early: 0, Misses: 0
214-> Hits: 1595, Late: 0, Early: 0, Misses: 0
215-> Hits: 74, Late: 0, Early: 0, Misses: 0
216-> Hits: 161, Late: 0, Early: 0, Misses: 0
217-> Hits: 306, Late: 2, Early: 0, Misses: 0
218-> Hits: 11, Late: 0, Early: 0, Misses: 0
21a-> Hits: 116, Late: 0, Early: 0, Misses: 0
21b-> Hits: 131, Late: 0, Early: 0, Misses: 1
21c-> Hits: 1719, Late: 0, Early: 0, Misses: 0
21e-> Hits: 1560, Late: 0, Early: 0, Misses: 0
21f-> Hits: 253, Late: 0, Early: 0, Misses: 0
220-> Hits: 78, Late: 1, Early: 0, Misses: 0
221-> Hits: 1, Late: 0, Early: 0, Misses: 0
222-> Hits: 11, Late: 3, Early: 0, Misses: 0
223-> Hits: 1687, Late: 5, Early: 0, Misses: 0
224-> Hits: 858, Late: 0, Early: 0, Misses: 0
227-> Hits: 2580, Late: 0, Early: 0, Misses: 0
228-> Hits: 166, Late: 4, Early: 0, Misses: 1
229-> Hits: 62, Late: 0, Early: 0, Misses: 0
22a-> Hits: 10, Late: 0, Early: 0, Misses: 0
22b-> Hits: 1555, Late: 0, Early: 0, Misses: 7
22c-> Hits: 486, Late: 0, Early: 0, Misses: 0
22d-> Hits: 1, Late: 0, Early: 0, Misses: 0
22f-> Hits: 2728, Late: 0, Early: 0, Misses: 0
230-> Hits: 458, Late: 6, Early: 0, Misses: 2
232-> Hits: 22, Late: 0, Early: 0, Misses: 0
234-> Hits: 1536, Late: 0, Early: 0, Misses: 0
235-> Hits: 57, Late: 0, Early: 0, Misses: 0
237-> Hits: 134, Late: 0, Early: 0, Misses: 0
238-> Hits: 85, Late: 0, Early: 0, Misses: 0
239-> Hits: 39, Late: 0, Early: 0, Misses: 0
23a-> Hits: 152, Late: 0, Early: 0, Misses: 0
23b-> Hits: 116, Late: 0, Early: 0, Misses: 0
23c-> Hits: 1584, Late: 0, Early: 0, Misses: 0
23e-> Hits: 2648, Late: 0, Early: 0, Misses: 0
23f-> Hits: 449, Late: 4, Early: 0, Misses: 0
240-> Hits: 120, Late: 0, Early: 0, Misses: 0
241-> Hits: 106, Late: 0, Early: 0, Misses: 76
242-> Hits: 60, Late: 1, Early: 0, Misses: 0
243-> Hits: 3302, Late: 0, Early: 0, Misses: 0
244-> Hits: 3, Late: 0, Early: 0, Misses: 0
245-> Hits: 303, Late: 30, Early: 0, Misses: 0
247-> Hits: 2, Late: 0, Early: 0, Misses: 1
248-> Hits: 1, Late: 0, Early: 0, Misses: 0
249-> Hits: 19, Late: 2, Early: 0, Misses: 99
24a-> Hits: 2, Late: 1, Early: 0, Misses: 0
24b-> Hits: 2, Late: 0, Early: 0, Misses: 0
24c-> Hits: 1619, Late: 0, Early: 0, Misses: 0
24d-> Hits: 112, Late: 0, Early: 0, Misses: 0
24f-> Hits: 307, Late: 0, Early: 0, Misses: 0
250-> Hits: 88001, Late: 362, Early: 0, Misses: 0
251-> Hits: 39, Late: 2, Early: 0, Misses: 0
252-> Hits: 62, Late: 2, Early: 0, Misses: 0
253-> Hits: 1570, Late: 0, Early: 0, Misses: 0
255-> Hits: 80337, Late: 0, Early: 0, Misses: 0
256-> Hits: 5, Late: 0, Early: 0, Misses: 0
257-> Hits: 496, Late: 1, Early: 0, Misses: 0
258-> Hits: 5, Late: 0, Early: 0, Misses: 0
259-> Hits: 61, Late: 0, Early: 0, Misses: 0
25a-> Hits: 1, Late: 1, Early: 0, Misses: 0
25b-> Hits: 14, Late: 45, Early: 0, Misses: 0
25c-> Hits: 118, Late: 0, Early: 0, Misses: 0
25e-> Hits: 15, Late: 1, Early: 0, Misses: 0
25f-> Hits: 142429, Late: 408, Early: 0, Misses: 245
260-> Hits: 310, Late: 3, Early: 0, Misses: 1
261-> Hits: 13, Late: 0, Early: 0, Misses: 0
262-> Hits: 1007, Late: 0, Early: 0, Misses: 0
263-> Hits: 54755, Late: 0, Early: 0, Misses: 0
264-> Hits: 188, Late: 44, Early: 0, Misses: 0
265-> Hits: 191, Late: 0, Early: 0, Misses: 0
266-> Hits: 13, Late: 3, Early: 0, Misses: 114
267-> Hits: 6, Late: 2, Early: 0, Misses: 0
268-> Hits: 2, Late: 0, Early: 0, Misses: 0
269-> Hits: 71, Late: 2, Early: 0, Misses: 0
26a-> Hits: 269, Late: 119, Early: 0, Misses: 0
26b-> Hits: 2, Late: 0, Early: 0, Misses: 0
26c-> Hits: 1632, Late: 0, Early: 0, Misses: 0
26d-> Hits: 85390, Late: 154, Early: 0, Misses: 0
26e-> Hits: 3187, Late: 0, Early: 0, Misses: 0
26f-> Hits: 0, Late: 2, Early: 0, Misses: 114
270-> Hits: 2, Late: 2, Early: 0, Misses: 0
271-> Hits: 53454, Late: 172, Early: 0, Misses: 0
272-> Hits: 273, Late: 48, Early: 0, Misses: 0
273-> Hits: 1354, Late: 1, Early: 0, Misses: 0
274-> Hits: 22, Late: 1, Early: 0, Misses: 0
275-> Hits: 2, Late: 0, Early: 0, Misses: 0
277-> Hits: 4, Late: 0, Early: 0, Misses: 1
278-> Hits: 575, Late: 3, Early: 0, Misses: 0
27a-> Hits: 2339, Late: 2, Early: 0, Misses: 0
27b-> Hits: 1343, Late: 1, Early: 0, Misses: 0
27c-> Hits: 6, Late: 0, Early: 0, Misses: 0
27d-> Hits: 3, Late: 1, Early: 0, Misses: 0
27e-> Hits: 3, Late: 0, Early: 0, Misses: 0
27f-> Hits: 1, Late: 0, Early: 0, Misses: 0
280-> Hits: 341, Late: 3, Early: 0, Misses: 0
281-> Hits: 1, Late: 0, Early: 0, Misses: 0
282-> Hits: 2, Late: 1, Early: 0, Misses: 0
284-> Hits: 25, Late: 0, Early: 0, Misses: 0
285-> Hits: 235, Late: 0, Early: 0, Misses: 0
286-> Hits: 51627, Late: 523, Early: 0, Misses: 0
287-> Hits: 9, Late: 0, Early: 0, Misses: 1
288-> Hits: 4, Late: 2, Early: 0, Misses: 0
289-> Hits: 116, Late: 0, Early: 0, Misses: 0
28a-> Hits: 2, Late: 2, Early: 0, Misses: 0
28b-> Hits: 84480, Late: 93, Early: 0, Misses: 0
28c-> Hits: 2, Late: 1, Early: 0, Misses: 0
28d-> Hits: 1, Late: 0, Early: 0, Misses: 0
28e-> Hits: 1, Late: 1, Early: 0, Misses: 0
290-> Hits: 38003, Late: 5997, Early: 0, Misses: 3
291-> Hits: 77135, Late: 0, Early: 0, Misses: 0
292-> Hits: 2433, Late: 0, Early: 0, Misses: 0
293-> Hits: 1066, Late: 573, Early: 0, Misses: 54
294-> Hits: 35818, Late: 6064, Early: 0, Misses: 0
295-> Hits: 60, Late: 0, Early: 0, Misses: 0
296-> Hits: 11, Late: 0, Early: 0, Misses: 0
297-> Hits: 0, Late: 0, Early: 0, Misses: 1
298-> Hits: 12, Late: 1, Early: 0, Misses: 0
29a-> Hits: 8, Late: 0, Early: 0, Misses: 0
29b-> Hits: 117, Late: 0, Early: 0, Misses: 0
29c-> Hits: 1, Late: 0, Early: 0, Misses: 0
29d-> Hits: 980, Late: 707, Early: 0, Misses: 2
29e-> Hits: 3485, Late: 27, Early: 0, Misses: 0
29f-> Hits: 36765, Late: 6060, Early: 0, Misses: 0
2a0-> Hits: 2, Late: 0, Early: 0, Misses: 1
2a1-> Hits: 3, Late: 0, Early: 0, Misses: 1
2a2-> Hits: 117, Late: 0, Early: 0, Misses: 0
2a3-> Hits: 35623, Late: 6872, Early: 0, Misses: 0
2a4-> Hits: 340, Late: 0, Early: 0, Misses: 0
2a5-> Hits: 0, Late: 2, Early: 0, Misses: 0
2a7-> Hits: 3186, Late: 0, Early: 0, Misses: 1
2a8-> Hits: 1, Late: 2, Early: 0, Misses: 0
2a9-> Hits: 17928, Late: 10, Early: 0, Misses: 0
2ab-> Hits: 5, Late: 3, Early: 0, Misses: 0
2ac-> Hits: 0, Late: 1, Early: 0, Misses: 0
2ad-> Hits: 1, Late: 0, Early: 0, Misses: 0
2af-> Hits: 35425, Late: 6677, Early: 0, Misses: 0
2b0-> Hits: 46, Late: 0, Early: 0, Misses: 0
2b1-> Hits: 4, Late: 0, Early: 0, Misses: 0
2b2-> Hits: 1, Late: 0, Early: 0, Misses: 0
2b3-> Hits: 104, Late: 0, Early: 0, Misses: 0
2b4-> Hits: 2, Late: 0, Early: 0, Misses: 0
2b5-> Hits: 32906, Late: 7688, Early: 0, Misses: 0
2b6-> Hits: 1, Late: 0, Early: 0, Misses: 0
2b7-> Hits: 116, Late: 1, Early: 0, Misses: 0
2b8-> Hits: 7, Late: 0, Early: 0, Misses: 1
2b9-> Hits: 4, Late: 0, Early: 0, Misses: 0
2ba-> Hits: 3, Late: 0, Early: 0, Misses: 0
2bb-> Hits: 51993, Late: 578, Early: 0, Misses: 0
2bd-> Hits: 344, Late: 0, Early: 0, Misses: 0
2be-> Hits: 5, Late: 0, Early: 0, Misses: 0
2bf-> Hits: 1, Late: 1, Early: 0, Misses: 0
2c0-> Hits: 4, Late: 5, Early: 0, Misses: 0
2c2-> Hits: 2, Late: 1, Early: 0, Misses: 0
2c5-> Hits: 2, Late: 0, Early: 0, Misses: 0
2c6-> Hits: 2, Late: 0, Early: 0, Misses: 0
2c7-> Hits: 1561, Late: 0, Early: 0, Misses: 1
2c9-> Hits: 2, Late: 2, Early: 0, Misses: 0
2ca-> Hits: 18163, Late: 69, Early: 0, Misses: 0
2cb-> Hits: 116, Late: 0, Early: 0, Misses: 0
2cd-> Hits: 118, Late: 0, Early: 0, Misses: 0
2ce-> Hits: 2, Late: 0, Early: 0, Misses: 0
2d0-> Hits: 4, Late: 1, Early: 0, Misses: 0
2d3-> Hits: 1, Late: 0, Early: 0, Misses: 0
2d4-> Hits: 1, Late: 0, Early: 0, Misses: 0
2d5-> Hits: 150, Late: 0, Early: 0, Misses: 0
2d6-> Hits: 47242, Late: 844, Early: 0, Misses: 0
2d7-> Hits: 2376, Late: 0, Early: 0, Misses: 0
2d8-> Hits: 340, Late: 2, Early: 0, Misses: 0
2d9-> Hits: 5, Late: 0, Early: 0, Misses: 0
2da-> Hits: 166, Late: 0, Early: 0, Misses: 0
2db-> Hits: 15574, Late: 116, Early: 0, Misses: 0
2df-> Hits: 3004, Late: 0, Early: 0, Misses: 0
2e0-> Hits: 3, Late: 2, Early: 0, Misses: 0
2e1-> Hits: 51, Late: 10, Early: 0, Misses: 1
2e2-> Hits: 119, Late: 2, Early: 0, Misses: 0
2e3-> Hits: 50142, Late: 916, Early: 0, Misses: 0
2e6-> Hits: 60, Late: 0, Early: 0, Misses: 0
2e7-> Hits: 14031, Late: 118, Early: 0, Misses: 0
2e8-> Hits: 323, Late: 6, Early: 0, Misses: 0
2e9-> Hits: 3, Late: 0, Early: 0, Misses: 0
2ea-> Hits: 12, Late: 0, Early: 0, Misses: 0
2ed-> Hits: 1, Late: 0, Early: 0, Misses: 0
2ee-> Hits: 32, Late: 0, Early: 0, Misses: 30
2ef-> Hits: 1, Late: 0, Early: 0, Misses: 0
2f0-> Hits: 8022, Late: 1, Early: 0, Misses: 1
2f1-> Hits: 2, Late: 0, Early: 0, Misses: 0
2f2-> Hits: 2, Late: 0, Early: 0, Misses: 0
2f3-> Hits: 345, Late: 0, Early: 0, Misses: 0
2f4-> Hits: 49326, Late: 1035, Early: 0, Misses: 0
2f5-> Hits: 3240, Late: 0, Early: 0, Misses: 0
2f6-> Hits: 8097, Late: 1, Early: 0, Misses: 1
2f8-> Hits: 25, Late: 1, Early: 0, Misses: 0
2f9-> Hits: 8979, Late: 175, Early: 0, Misses: 0
2fa-> Hits: 179, Late: 0, Early: 0, Misses: 0
2fb-> Hits: 2, Late: 2, Early: 0, Misses: 0
2fd-> Hits: 49, Late: 0, Early: 0, Misses: 0
2fe-> Hits: 10, Late: 0, Early: 0, Misses: 0
2ff-> Hits: 223, Late: 126, Early: 0, Misses: 0
300-> Hits: 1236, Late: 150, Early: 0, Misses: 0
301-> Hits: 57316, Late: 1324, Early: 0, Misses: 0
302-> Hits: 6, Late: 0, Early: 0, Misses: 0
303-> Hits: 135, Late: 2, Early: 0, Misses: 0
304-> Hits: 321, Late: 50, Early: 0, Misses: 0
306-> Hits: 15126, Late: 204, Early: 0, Misses: 58
307-> Hits: 1250, Late: 130, Early: 0, Misses: 0
308-> Hits: 6148, Late: 0, Early: 0, Misses: 0
30a-> Hits: 2, Late: 0, Early: 0, Misses: 0
30b-> Hits: 325, Late: 48, Early: 0, Misses: 0
30c-> Hits: 95, Late: 0, Early: 0, Misses: 0
30d-> Hits: 1, Late: 0, Early: 0, Misses: 0
30e-> Hits: 364, Late: 2, Early: 0, Misses: 0
30f-> Hits: 10863, Late: 38, Early: 0, Misses: 9
310-> Hits: 4225, Late: 8, Early: 0, Misses: 0
313-> Hits: 0, Late: 0, Early: 0, Misses: 1
314-> Hits: 7733, Late: 0, Early: 0, Misses: 1
315-> Hits: 189, Late: 35, Early: 0, Misses: 3
316-> Hits: 60, Late: 0, Early: 0, Misses: 0
317-> Hits: 1, Late: 0, Early: 0, Misses: 0
318-> Hits: 2507, Late: 0, Early: 0, Misses: 0
319-> Hits: 1, Late: 0, Early: 0, Misses: 0
31a-> Hits: 1, Late: 0, Early: 0, Misses: 0
31c-> Hits: 19, Late: 0, Early: 0, Misses: 0
31e-> Hits: 198, Late: 14, Early: 0, Misses: 0
31f-> Hits: 7883, Late: 13, Early: 0, Misses: 10
320-> Hits: 4052, Late: 20051, Early: 0, Misses: 1
321-> Hits: 0, Late: 0, Early: 0, Misses: 1
322-> Hits: 301, Late: 0, Early: 0, Misses: 0
323-> Hits: 45, Late: 1, Early: 0, Misses: 1
324-> Hits: 3179, Late: 0, Early: 0, Misses: 0
325-> Hits: 7927, Late: 3, Early: 0, Misses: 0
329-> Hits: 300, Late: 0, Early: 0, Misses: 0
32a-> Hits: 270, Late: 786, Early: 0, Misses: 0
32b-> Hits: 3031, Late: 114, Early: 0, Misses: 0
32c-> Hits: 11, Late: 1, Early: 0, Misses: 0
32e-> Hits: 1, Late: 0, Early: 0, Misses: 0
330-> Hits: 3613, Late: 2, Early: 0, Misses: 0
331-> Hits: 37, Late: 0, Early: 0, Misses: 0
332-> Hits: 118, Late: 0, Early: 0, Misses: 0
333-> Hits: 20296, Late: 0, Early: 0, Misses: 0
334-> Hits: 3421, Late: 7187, Early: 0, Misses: 0
335-> Hits: 27, Late: 7, Early: 0, Misses: 0
336-> Hits: 2, Late: 0, Early: 0, Misses: 0
338-> Hits: 11839, Late: 14, Early: 0, Misses: 358
339-> Hits: 1013, Late: 1, Early: 0, Misses: 0
33a-> Hits: 0, Late: 0, Early: 0, Misses: 1
33b-> Hits: 3132, Late: 0, Early: 0, Misses: 0
33c-> Hits: 3241, Late: 1, Early: 0, Misses: 0
33d-> Hits: 164, Late: 0, Early: 0, Misses: 0
33e-> Hits: 1, Late: 2, Early: 0, Misses: 0
340-> Hits: 27, Late: 0, Early: 0, Misses: 0
341-> Hits: 143, Late: 0, Early: 0, Misses: 0
343-> Hits: 567, Late: 0, Early: 0, Misses: 0
344-> Hits: 83715, Late: 0, Early: 0, Misses: 0
345-> Hits: 3132, Late: 0, Early: 0, Misses: 0
348-> Hits: 8, Late: 1, Early: 0, Misses: 1
349-> Hits: 3073, Late: 0, Early: 0, Misses: 0
34a-> Hits: 1, Late: 0, Early: 0, Misses: 0
34b-> Hits: 640, Late: 0, Early: 0, Misses: 0
34c-> Hits: 1, Late: 0, Early: 0, Misses: 0
34d-> Hits: 860, Late: 0, Early: 0, Misses: 0
34e-> Hits: 1, Late: 0, Early: 0, Misses: 0
34f-> Hits: 6148, Late: 116, Early: 0, Misses: 0
350-> Hits: 6399, Late: 427, Early: 0, Misses: 1
351-> Hits: 1375, Late: 0, Early: 0, Misses: 0
352-> Hits: 2, Late: 0, Early: 0, Misses: 1
353-> Hits: 0, Late: 1, Early: 0, Misses: 0
355-> Hits: 2911, Late: 315, Early: 0, Misses: 0
356-> Hits: 26, Late: 1, Early: 0, Misses: 13
357-> Hits: 3108, Late: 2, Early: 0, Misses: 22
358-> Hits: 1484, Late: 18, Early: 0, Misses: 0
359-> Hits: 2524, Late: 0, Early: 0, Misses: 0
35a-> Hits: 1, Late: 0, Early: 0, Misses: 0
35b-> Hits: 1, Late: 13, Early: 0, Misses: 0
35c-> Hits: 76, Late: 0, Early: 0, Misses: 0
35d-> Hits: 6, Late: 0, Early: 0, Misses: 0
35e-> Hits: 3205, Late: 0, Early: 0, Misses: 0
35f-> Hits: 4, Late: 9, Early: 0, Misses: 0
360-> Hits: 2809, Late: 416, Early: 0, Misses: 0
361-> Hits: 648, Late: 1, Early: 0, Misses: 0
363-> Hits: 38, Late: 0, Early: 0, Misses: 0
364-> Hits: 30, Late: 0, Early: 0, Misses: 0
365-> Hits: 3024, Late: 359, Early: 0, Misses: 0
366-> Hits: 679, Late: 0, Early: 0, Misses: 0
367-> Hits: 0, Late: 1, Early: 0, Misses: 0
368-> Hits: 3159, Late: 15, Early: 0, Misses: 0
369-> Hits: 3213, Late: 13, Early: 0, Misses: 0
36a-> Hits: 0, Late: 1, Early: 0, Misses: 0
36b-> Hits: 0, Late: 2, Early: 0, Misses: 0
36c-> Hits: 54, Late: 0, Early: 0, Misses: 0
36d-> Hits: 122, Late: 0, Early: 0, Misses: 1
36e-> Hits: 2, Late: 0, Early: 0, Misses: 0
370-> Hits: 2722, Late: 524, Early: 0, Misses: 0
371-> Hits: 6070, Late: 4, Early: 0, Misses: 113
372-> Hits: 3868, Late: 0, Early: 0, Misses: 0
373-> Hits: 0, Late: 1, Early: 0, Misses: 0
374-> Hits: 234, Late: 0, Early: 0, Misses: 0
375-> Hits: 2770, Late: 488, Early: 0, Misses: 14
377-> Hits: 3132, Late: 0, Early: 0, Misses: 0
378-> Hits: 242, Late: 0, Early: 0, Misses: 1
37a-> Hits: 2, Late: 0, Early: 0, Misses: 0
37c-> Hits: 117, Late: 0, Early: 0, Misses: 0
37d-> Hits: 2, Late: 13, Early: 0, Misses: 0
37e-> Hits: 3155, Late: 0, Early: 0, Misses: 0
37f-> Hits: 118, Late: 0, Early: 0, Misses: 0
380-> Hits: 14094, Late: 476, Early: 0, Misses: 4
381-> Hits: 0, Late: 1, Early: 0, Misses: 0
382-> Hits: 554, Late: 0, Early: 0, Misses: 58
383-> Hits: 2, Late: 0, Early: 0, Misses: 0
384-> Hits: 5, Late: 0, Early: 0, Misses: 13
385-> Hits: 3198, Late: 396, Early: 0, Misses: 0
387-> Hits: 3244, Late: 0, Early: 0, Misses: 0
388-> Hits: 156, Late: 2, Early: 0, Misses: 0
38a-> Hits: 3138, Late: 0, Early: 0, Misses: 0
38b-> Hits: 14389, Late: 213, Early: 0, Misses: 0
38c-> Hits: 37, Late: 16, Early: 0, Misses: 0
38d-> Hits: 78, Late: 0, Early: 0, Misses: 0
38e-> Hits: 93, Late: 0, Early: 0, Misses: 60
38f-> Hits: 13, Late: 0, Early: 0, Misses: 0
390-> Hits: 3329, Late: 1295, Early: 0, Misses: 0
391-> Hits: 3361, Late: 217, Early: 0, Misses: 1
392-> Hits: 1, Late: 0, Early: 0, Misses: 0
393-> Hits: 60, Late: 0, Early: 0, Misses: 59
394-> Hits: 55, Late: 13, Early: 0, Misses: 0
395-> Hits: 6337, Late: 0, Early: 0, Misses: 0
396-> Hits: 9, Late: 0, Early: 0, Misses: 0
397-> Hits: 17, Late: 0, Early: 0, Misses: 3
399-> Hits: 4254, Late: 71, Early: 0, Misses: 0
39a-> Hits: 27, Late: 0, Early: 0, Misses: 0
39b-> Hits: 126, Late: 1, Early: 0, Misses: 2
39c-> Hits: 6, Late: 1, Early: 0, Misses: 0
39d-> Hits: 10, Late: 0, Early: 0, Misses: 0
39e-> Hits: 160, Late: 1467, Early: 0, Misses: 0
39f-> Hits: 9, Late: 13, Early: 0, Misses: 0
3a0-> Hits: 3158, Late: 0, Early: 0, Misses: 0
3a1-> Hits: 1, Late: 1, Early: 0, Misses: 0
3a2-> Hits: 13, Late: 0, Early: 0, Misses: 0
3a3-> Hits: 15253, Late: 572, Early: 0, Misses: 0
3a4-> Hits: 42, Late: 0, Early: 0, Misses: 0
3a5-> Hits: 0, Late: 1, Early: 0, Misses: 0
3a6-> Hits: 154, Late: 0, Early: 0, Misses: 6
3a7-> Hits: 1, Late: 0, Early: 0, Misses: 0
3a8-> Hits: 3173, Late: 406, Early: 0, Misses: 0
3a9-> Hits: 3466, Late: 7, Early: 0, Misses: 24
3aa-> Hits: 1, Late: 0, Early: 0, Misses: 0
3ab-> Hits: 10, Late: 0, Early: 0, Misses: 118
3ac-> Hits: 3137, Late: 0, Early: 0, Misses: 1
3ae-> Hits: 15, Late: 0, Early: 0, Misses: 45
3af-> Hits: 9, Late: 0, Early: 0, Misses: 0
3b0-> Hits: 55, Late: 4, Early: 0, Misses: 0
3b1-> Hits: 353, Late: 13, Early: 0, Misses: 2
3b2-> Hits: 3, Late: 0, Early: 0, Misses: 0
3b3-> Hits: 66, Late: 0, Early: 0, Misses: 59
3b4-> Hits: 3256, Late: 77, Early: 0, Misses: 34
3b5-> Hits: 0, Late: 1, Early: 0, Misses: 0
3b6-> Hits: 2864, Late: 0, Early: 0, Misses: 0
3b7-> Hits: 3023, Late: 0, Early: 0, Misses: 114
3b8-> Hits: 63, Late: 0, Early: 0, Misses: 0
3b9-> Hits: 89, Late: 0, Early: 0, Misses: 37
3ba-> Hits: 2, Late: 0, Early: 0, Misses: 0
3bc-> Hits: 81, Late: 0, Early: 0, Misses: 36
3bd-> Hits: 1, Late: 0, Early: 0, Misses: 0
3be-> Hits: 3855, Late: 70, Early: 0, Misses: 0
3bf-> Hits: 0, Late: 14, Early: 0, Misses: 0
3c0-> Hits: 256, Late: 0, Early: 0, Misses: 0
3c1-> Hits: 147, Late: 0, Early: 0, Misses: 0
3c2-> Hits: 1, Late: 0, Early: 0, Misses: 0
3c3-> Hits: 17, Late: 0, Early: 0, Misses: 0
3c5-> Hits: 213, Late: 0, Early: 0, Misses: 58
3c6-> Hits: 35, Late: 37, Early: 0, Misses: 0
3c7-> Hits: 605, Late: 0, Early: 0, Misses: 0
3c8-> Hits: 3053, Late: 0, Early: 0, Misses: 0
3c9-> Hits: 73, Late: 0, Early: 0, Misses: 0
3ca-> Hits: 95, Late: 1, Early: 0, Misses: 22
3cc-> Hits: 454, Late: 0, Early: 0, Misses: 0
3cd-> Hits: 554, Late: 1, Early: 0, Misses: 58
3ce-> Hits: 61, Late: 0, Early: 0, Misses: 0
3cf-> Hits: 1634, Late: 58, Early: 0, Misses: 0
3d0-> Hits: 7, Late: 1, Early: 0, Misses: 0
3d1-> Hits: 12, Late: 0, Early: 0, Misses: 0
3d2-> Hits: 0, Late: 1, Early: 0, Misses: 115
3d3-> Hits: 574, Late: 2674, Early: 0, Misses: 0
3d4-> Hits: 473, Late: 0, Early: 0, Misses: 0
3d5-> Hits: 187, Late: 0, Early: 0, Misses: 1
3d6-> Hits: 310, Late: 0, Early: 0, Misses: 0
3d7-> Hits: 531, Late: 1, Early: 0, Misses: 58
3d8-> Hits: 77, Late: 1, Early: 0, Misses: 2
3d9-> Hits: 14, Late: 0, Early: 0, Misses: 0
3da-> Hits: 13, Late: 0, Early: 0, Misses: 2
3dc-> Hits: 531, Late: 0, Early: 0, Misses: 0
3dd-> Hits: 150, Late: 0, Early: 0, Misses: 0
3de-> Hits: 178, Late: 0, Early: 0, Misses: 0
3e0-> Hits: 0, Late: 3, Early: 0, Misses: 1
3e1-> Hits: 848, Late: 0, Early: 0, Misses: 0
3e2-> Hits: 42, Late: 0, Early: 0, Misses: 0
3e3-> Hits: 1, Late: 0, Early: 0, Misses: 0
3e4-> Hits: 621, Late: 2692, Early: 0, Misses: 0
3e5-> Hits: 282, Late: 0, Early: 0, Misses: 1
3e6-> Hits: 1858, Late: 0, Early: 0, Misses: 0
3e9-> Hits: 2, Late: 0, Early: 0, Misses: 0
3eb-> Hits: 10, Late: 0, Early: 0, Misses: 0
3ec-> Hits: 6053, Late: 0, Early: 0, Misses: 0
3ed-> Hits: 86, Late: 0, Early: 0, Misses: 0
3ee-> Hits: 129, Late: 1, Early: 0, Misses: 0
3f0-> Hits: 629, Late: 0, Early: 0, Misses: 0
3f1-> Hits: 3186, Late: 0, Early: 0, Misses: 0
3f2-> Hits: 2, Late: 0, Early: 0, Misses: 0
3f3-> Hits: 1607, Late: 0, Early: 0, Misses: 0
3f4-> Hits: 2544, Late: 0, Early: 0, Misses: 0
3f5-> Hits: 177, Late: 13, Early: 0, Misses: 0
3f6-> Hits: 1, Late: 0, Early: 0, Misses: 0
3f7-> Hits: 2, Late: 0, Early: 0, Misses: 0
3f8-> Hits: 554, Late: 2, Early: 0, Misses: 44
3f9-> Hits: 3188, Late: 0, Early: 0, Misses: 118
3fa-> Hits: 1, Late: 0, Early: 0, Misses: 0
3fb-> Hits: 6, Late: 0, Early: 0, Misses: 0
3fc-> Hits: 3191, Late: 0, Early: 0, Misses: 0
3fd-> Hits: 1, Late: 0, Early: 0, Misses: 0
3fe-> Hits: 249, Late: 0, Early: 0, Misses: 0
3ff-> Hits: 2, Late: 0, Early: 0, Misses: 0
400-> Hits: 17026, Late: 926, Early: 0, Misses: 6
401-> Hits: 629, Late: 2674, Early: 0, Misses: 0
402-> Hits: 88, Late: 0, Early: 0, Misses: 3
403-> Hits: 5, Late: 0, Early: 0, Misses: 0
404-> Hits: 3133, Late: 0, Early: 0, Misses: 6
406-> Hits: 532, Late: 3, Early: 0, Misses: 66
407-> Hits: 120, Late: 0, Early: 0, Misses: 0
408-> Hits: 3, Late: 1, Early: 0, Misses: 0
40a-> Hits: 14595, Late: 9, Early: 0, Misses: 0
40b-> Hits: 1, Late: 0, Early: 0, Misses: 0
40c-> Hits: 3792, Late: 0, Early: 0, Misses: 2
40e-> Hits: 6, Late: 0, Early: 0, Misses: 0
40f-> Hits: 3143, Late: 104, Early: 0, Misses: 3
410-> Hits: 14979, Late: 1072, Early: 0, Misses: 1
411-> Hits: 1, Late: 0, Early: 0, Misses: 0
412-> Hits: 13, Late: 0, Early: 0, Misses: 0
413-> Hits: 1620, Late: 0, Early: 0, Misses: 0
414-> Hits: 2247, Late: 0, Early: 0, Misses: 0
416-> Hits: 1613, Late: 61, Early: 0, Misses: 0
417-> Hits: 14403, Late: 8, Early: 0, Misses: 0
418-> Hits: 3183, Late: 1, Early: 0, Misses: 0
419-> Hits: 53, Late: 0, Early: 0, Misses: 0
41a-> Hits: 1619, Late: 0, Early: 0, Misses: 0
41b-> Hits: 1, Late: 0, Early: 0, Misses: 0
41c-> Hits: 27, Late: 0, Early: 0, Misses: 0
41e-> Hits: 7, Late: 0, Early: 0, Misses: 0
41f-> Hits: 1539, Late: 184, Early: 0, Misses: 19
420-> Hits: 35634, Late: 474, Early: 0, Misses: 636
422-> Hits: 14024, Late: 16, Early: 0, Misses: 0
423-> Hits: 32940, Late: 2629, Early: 0, Misses: 0
424-> Hits: 168, Late: 1, Early: 0, Misses: 0
425-> Hits: 35, Late: 0, Early: 0, Misses: 0
426-> Hits: 3019, Late: 0, Early: 0, Misses: 0
427-> Hits: 58, Late: 0, Early: 0, Misses: 0
428-> Hits: 3027, Late: 0, Early: 0, Misses: 0
429-> Hits: 35153, Late: 41, Early: 0, Misses: 31
42a-> Hits: 119, Late: 0, Early: 0, Misses: 0
42b-> Hits: 3, Late: 0, Early: 0, Misses: 0
42c-> Hits: 577, Late: 0, Early: 0, Misses: 0
42d-> Hits: 1, Late: 0, Early: 0, Misses: 0
42e-> Hits: 3043, Late: 0, Early: 0, Misses: 0
42f-> Hits: 3145, Late: 1, Early: 0, Misses: 0
430-> Hits: 65360, Late: 590, Early: 0, Misses: 0
433-> Hits: 35598, Late: 297, Early: 0, Misses: 164
434-> Hits: 1000, Late: 0, Early: 0, Misses: 0
435-> Hits: 57, Late: 0, Early: 0, Misses: 0
436-> Hits: 1, Late: 0, Early: 0, Misses: 0
438-> Hits: 18, Late: 0, Early: 0, Misses: 0
439-> Hits: 1, Late: 0, Early: 0, Misses: 1
43a-> Hits: 12026, Late: 967, Early: 0, Misses: 0
43b-> Hits: 2, Late: 0, Early: 0, Misses: 0
43c-> Hits: 0, Late: 1, Early: 0, Misses: 0
43e-> Hits: 1657, Late: 1, Early: 0, Misses: 0
43f-> Hits: 3017, Late: 0, Early: 0, Misses: 0
440-> Hits: 1, Late: 2, Early: 0, Misses: 1
441-> Hits: 10, Late: 1, Early: 0, Misses: 0
442-> Hits: 10, Late: 0, Early: 0, Misses: 0
444-> Hits: 3248, Late: 0, Early: 0, Misses: 12
445-> Hits: 3, Late: 0, Early: 0, Misses: 0
446-> Hits: 11, Late: 0, Early: 0, Misses: 0
447-> Hits: 2899, Late: 117, Early: 0, Misses: 0
448-> Hits: 10, Late: 1, Early: 0, Misses: 1
44a-> Hits: 39, Late: 0, Early: 0, Misses: 0
44b-> Hits: 11, Late: 0, Early: 0, Misses: 0
44c-> Hits: 1346, Late: 0, Early: 0, Misses: 0
44d-> Hits: 2770, Late: 0, Early: 0, Misses: 0
44f-> Hits: 1, Late: 0, Early: 0, Misses: 0
451-> Hits: 1, Late: 0, Early: 0, Misses: 0
452-> Hits: 117, Late: 0, Early: 0, Misses: 0
453-> Hits: 0, Late: 1, Early: 0, Misses: 0
454-> Hits: 12, Late: 0, Early: 0, Misses: 0
455-> Hits: 2668, Late: 0, Early: 0, Misses: 348
456-> Hits: 22, Late: 0, Early: 0, Misses: 0
457-> Hits: 1, Late: 0, Early: 0, Misses: 0
458-> Hits: 116, Late: 0, Early: 0, Misses: 0
459-> Hits: 10, Late: 0, Early: 0, Misses: 0
45a-> Hits: 1459, Late: 0, Early: 0, Misses: 0
45c-> Hits: 1, Late: 0, Early: 0, Misses: 0
45e-> Hits: 11, Late: 0, Early: 0, Misses: 0
45f-> Hits: 6413, Late: 0, Early: 0, Misses: 34
460-> Hits: 1, Late: 2, Early: 0, Misses: 0
461-> Hits: 980, Late: 0, Early: 0, Misses: 0
462-> Hits: 4653, Late: 0, Early: 0, Misses: 44
463-> Hits: 2, Late: 0, Early: 0, Misses: 0
464-> Hits: 53168, Late: 0, Early: 0, Misses: 8
465-> Hits: 2, Late: 2, Early: 0, Misses: 0
466-> Hits: 13, Late: 0, Early: 0, Misses: 0
467-> Hits: 3090, Late: 0, Early: 0, Misses: 42
468-> Hits: 9, Late: 0, Early: 0, Misses: 117
469-> Hits: 21, Late: 0, Early: 0, Misses: 0
46a-> Hits: 60, Late: 0, Early: 0, Misses: 0
46b-> Hits: 17, Late: 1, Early: 0, Misses: 0
46c-> Hits: 53171, Late: 21, Early: 0, Misses: 2
46d-> Hits: 1568, Late: 0, Early: 0, Misses: 0
46e-> Hits: 18, Late: 1, Early: 0, Misses: 0
46f-> Hits: 10, Late: 0, Early: 0, Misses: 0
470-> Hits: 2010, Late: 2, Early: 0, Misses: 116
471-> Hits: 1, Late: 0, Early: 0, Misses: 0
473-> Hits: 3490, Late: 0, Early: 0, Misses: 36
475-> Hits: 110, Late: 1, Early: 0, Misses: 0
477-> Hits: 1, Late: 0, Early: 0, Misses: 0
478-> Hits: 53051, Late: 149, Early: 0, Misses: 0
479-> Hits: 607, Late: 0, Early: 0, Misses: 0
47c-> Hits: 256, Late: 0, Early: 0, Misses: 11
47d-> Hits: 57, Late: 14, Early: 0, Misses: 0
47e-> Hits: 3150, Late: 0, Early: 0, Misses: 69
47f-> Hits: 53035, Late: 0, Early: 0, Misses: 2
480-> Hits: 0, Late: 2, Early: 0, Misses: 0
481-> Hits: 3, Late: 0, Early: 0, Misses: 0
482-> Hits: 12, Late: 0, Early: 0, Misses: 0
484-> Hits: 112, Late: 0, Early: 0, Misses: 5
485-> Hits: 53, Late: 0, Early: 0, Misses: 0
486-> Hits: 2971, Late: 0, Early: 0, Misses: 0
487-> Hits: 52693, Late: 567, Early: 0, Misses: 1
488-> Hits: 0, Late: 0, Early: 0, Misses: 1
48b-> Hits: 54835, Late: 45, Early: 0, Misses: 2
48d-> Hits: 1, Late: 0, Early: 0, Misses: 0
48e-> Hits: 3133, Late: 0, Early: 0, Misses: 0
48f-> Hits: 2, Late: 0, Early: 0, Misses: 0
490-> Hits: 5945, Late: 31, Early: 0, Misses: 175
491-> Hits: 1184, Late: 0, Early: 0, Misses: 0
492-> Hits: 52, Late: 0, Early: 0, Misses: 0
493-> Hits: 2, Late: 0, Early: 0, Misses: 0
495-> Hits: 5673, Late: 146, Early: 0, Misses: 0
496-> Hits: 2751, Late: 3, Early: 0, Misses: 0
497-> Hits: 4749, Late: 0, Early: 0, Misses: 0
498-> Hits: 2, Late: 0, Early: 0, Misses: 0
499-> Hits: 52602, Late: 607, Early: 0, Misses: 0
49a-> Hits: 2, Late: 0, Early: 0, Misses: 0
49b-> Hits: 60, Late: 0, Early: 0, Misses: 0
49d-> Hits: 2, Late: 1, Early: 0, Misses: 0
49e-> Hits: 5803, Late: 0, Early: 0, Misses: 2
4a0-> Hits: 53139, Late: 55, Early: 0, Misses: 0
4a1-> Hits: 1, Late: 0, Early: 0, Misses: 0
4a2-> Hits: 3598, Late: 0, Early: 0, Misses: 1
4a3-> Hits: 4641, Late: 0, Early: 0, Misses: 0
4a4-> Hits: 19, Late: 1, Early: 0, Misses: 0
4a5-> Hits: 3120, Late: 2, Early: 0, Misses: 12
4a6-> Hits: 9909, Late: 66, Early: 0, Misses: 0
4a7-> Hits: 5664, Late: 0, Early: 0, Misses: 0
4a8-> Hits: 1080, Late: 0, Early: 0, Misses: 0
4a9-> Hits: 2, Late: 1, Early: 0, Misses: 0
4aa-> Hits: 2, Late: 0, Early: 0, Misses: 0
4ab-> Hits: 0, Late: 3, Early: 0, Misses: 0
4ac-> Hits: 4, Late: 0, Early: 0, Misses: 0
4ae-> Hits: 3016, Late: 0, Early: 0, Misses: 0
4af-> Hits: 2925, Late: 0, Early: 0, Misses: 0
4b0-> Hits: 89050, Late: 330, Early: 0, Misses: 8317
4b1-> Hits: 7, Late: 0, Early: 0, Misses: 0
4b4-> Hits: 56164, Late: 17, Early: 0, Misses: 492
4b6-> Hits: 2, Late: 0, Early: 0, Misses: 0
4b7-> Hits: 3, Late: 2, Early: 0, Misses: 0
4b8-> Hits: 54699, Late: 1016, Early: 0, Misses: 0
4b9-> Hits: 11199, Late: 30, Early: 0, Misses: 0
4bb-> Hits: 161, Late: 0, Early: 0, Misses: 0
4bc-> Hits: 52059, Late: 24, Early: 0, Misses: 1130
4be-> Hits: 1620, Late: 0, Early: 0, Misses: 0
4bf-> Hits: 2, Late: 0, Early: 0, Misses: 0
4c0-> Hits: 111176, Late: 1229, Early: 0, Misses: 0
4c2-> Hits: 1, Late: 0, Early: 0, Misses: 0
4c3-> Hits: 2, Late: 0, Early: 0, Misses: 0
4c4-> Hits: 3720, Late: 0, Early: 0, Misses: 0
4c5-> Hits: 12, Late: 0, Early: 0, Misses: 0
4c6-> Hits: 57789, Late: 0, Early: 0, Misses: 0
4c7-> Hits: 18, Late: 0, Early: 0, Misses: 0
4c8-> Hits: 53148, Late: 12, Early: 0, Misses: 74
4c9-> Hits: 118, Late: 0, Early: 0, Misses: 0
4ca-> Hits: 1, Late: 2, Early: 0, Misses: 0
4cc-> Hits: 100683, Late: 437, Early: 0, Misses: 150
4cd-> Hits: 1, Late: 0, Early: 0, Misses: 0
4ce-> Hits: 13458, Late: 0, Early: 0, Misses: 0
4cf-> Hits: 52251, Late: 255, Early: 0, Misses: 30
4d0-> Hits: 68, Late: 2, Early: 0, Misses: 0
4d1-> Hits: 117, Late: 0, Early: 0, Misses: 0
4d2-> Hits: 39, Late: 0, Early: 0, Misses: 0
4d3-> Hits: 2530, Late: 0, Early: 0, Misses: 0
4d4-> Hits: 55143, Late: 24, Early: 0, Misses: 1233
4d5-> Hits: 0, Late: 1, Early: 0, Misses: 0
4d6-> Hits: 1029, Late: 0, Early: 0, Misses: 0
4d9-> Hits: 1, Late: 2, Early: 0, Misses: 0
4da-> Hits: 52331, Late: 212, Early: 0, Misses: 0
4db-> Hits: 53066, Late: 4, Early: 0, Misses: 4
4dc-> Hits: 3186, Late: 0, Early: 0, Misses: 0
4dd-> Hits: 10160, Late: 2, Early: 0, Misses: 4
4de-> Hits: 3792, Late: 0, Early: 0, Misses: 0
4df-> Hits: 46648, Late: 0, Early: 0, Misses: 0
4e0-> Hits: 608, Late: 1238, Early: 0, Misses: 0
4e2-> Hits: 1, Late: 0, Early: 0, Misses: 0
4e3-> Hits: 53116, Late: 12, Early: 0, Misses: 107
4e4-> Hits: 1, Late: 0, Early: 0, Misses: 0
4e5-> Hits: 1619, Late: 3, Early: 0, Misses: 0
4e6-> Hits: 116, Late: 0, Early: 0, Misses: 0
4e7-> Hits: 51548, Late: 1002, Early: 0, Misses: 0
4e9-> Hits: 3, Late: 0, Early: 0, Misses: 0
4ea-> Hits: 2549, Late: 4, Early: 0, Misses: 0
4eb-> Hits: 1680, Late: 0, Early: 0, Misses: 0
4ec-> Hits: 833, Late: 0, Early: 0, Misses: 0
4ed-> Hits: 0, Late: 1, Early: 0, Misses: 0
4ee-> Hits: 3194, Late: 0, Early: 0, Misses: 0
4f0-> Hits: 2, Late: 0, Early: 0, Misses: 0
4f2-> Hits: 664, Late: 0, Early: 0, Misses: 114
4f3-> Hits: 3, Late: 0, Early: 0, Misses: 0
4f4-> Hits: 866, Late: 696, Early: 0, Misses: 0
4f5-> Hits: 295, Late: 0, Early: 0, Misses: 0
4f6-> Hits: 21, Late: 0, Early: 0, Misses: 0
4f7-> Hits: 898, Late: 0, Early: 0, Misses: 0
4f8-> Hits: 2, Late: 0, Early: 0, Misses: 0
4fa-> Hits: 55162, Late: 718, Early: 0, Misses: 0
4fb-> Hits: 0, Late: 4, Early: 0, Misses: 0
4fc-> Hits: 10, Late: 0, Early: 0, Misses: 0
4fd-> Hits: 3132, Late: 1, Early: 0, Misses: 0
4ff-> Hits: 2821, Late: 0, Early: 0, Misses: 0
500-> Hits: 1495, Late: 49, Early: 0, Misses: 0
501-> Hits: 756, Late: 0, Early: 0, Misses: 1
502-> Hits: 2865, Late: 0, Early: 0, Misses: 0
503-> Hits: 94, Late: 1, Early: 0, Misses: 0
504-> Hits: 119, Late: 0, Early: 0, Misses: 0
505-> Hits: 4435, Late: 1, Early: 0, Misses: 0
506-> Hits: 3408, Late: 84, Early: 0, Misses: 0
507-> Hits: 55113, Late: 563, Early: 0, Misses: 0
508-> Hits: 31, Late: 0, Early: 0, Misses: 0
50a-> Hits: 2934, Late: 1, Early: 0, Misses: 0
50b-> Hits: 1669, Late: 0, Early: 0, Misses: 0
50c-> Hits: 10, Late: 0, Early: 0, Misses: 116
50d-> Hits: 29038, Late: 911, Early: 0, Misses: 0
50f-> Hits: 1, Late: 0, Early: 0, Misses: 0
510-> Hits: 16973, Late: 321, Early: 0, Misses: 0
511-> Hits: 8, Late: 0, Early: 0, Misses: 0
513-> Hits: 104, Late: 1, Early: 0, Misses: 0
514-> Hits: 2779, Late: 13, Early: 0, Misses: 0
516-> Hits: 53520, Late: 0, Early: 0, Misses: 0
517-> Hits: 1607, Late: 0, Early: 0, Misses: 0
519-> Hits: 52539, Late: 489, Early: 0, Misses: 0
51a-> Hits: 2489, Late: 4, Early: 0, Misses: 0
51b-> Hits: 3078, Late: 0, Early: 0, Misses: 175
51c-> Hits: 3133, Late: 1, Early: 0, Misses: 0
51e-> Hits: 51584, Late: 954, Early: 0, Misses: 0
51f-> Hits: 31010, Late: 50, Early: 0, Misses: 0
520-> Hits: 1, Late: 3, Early: 0, Misses: 0
521-> Hits: 48006, Late: 20, Early: 0, Misses: 0
523-> Hits: 54060, Late: 321, Early: 0, Misses: 59
524-> Hits: 29478, Late: 77, Early: 0, Misses: 0
525-> Hits: 1, Late: 2, Early: 0, Misses: 0
528-> Hits: 3096, Late: 0, Early: 0, Misses: 39
529-> Hits: 1579, Late: 30, Early: 0, Misses: 0
52b-> Hits: 1709, Late: 0, Early: 0, Misses: 0
52c-> Hits: 51275, Late: 599, Early: 0, Misses: 110
52d-> Hits: 245, Late: 0, Early: 0, Misses: 5
52e-> Hits: 29, Late: 0, Early: 0, Misses: 0
52f-> Hits: 733, Late: 0, Early: 0, Misses: 0
530-> Hits: 148, Late: 2, Early: 0, Misses: 0
531-> Hits: 77978, Late: 68, Early: 0, Misses: 3
532-> Hits: 3, Late: 7, Early: 0, Misses: 6
533-> Hits: 51906, Late: 1519, Early: 0, Misses: 0
534-> Hits: 199, Late: 189, Early: 0, Misses: 7
535-> Hits: 1428, Late: 48, Early: 0, Misses: 8
536-> Hits: 6001, Late: 216, Early: 0, Misses: 0
537-> Hits: 93, Late: 10, Early: 0, Misses: 0
538-> Hits: 1690, Late: 0, Early: 0, Misses: 0
53a-> Hits: 395, Late: 0, Early: 0, Misses: 0
53b-> Hits: 52424, Late: 332, Early: 0, Misses: 0
53d-> Hits: 1, Late: 2, Early: 0, Misses: 0
53e-> Hits: 6503, Late: 7, Early: 0, Misses: 0
540-> Hits: 7786, Late: 72, Early: 0, Misses: 29
542-> Hits: 2261, Late: 0, Early: 0, Misses: 0
544-> Hits: 163, Late: 0, Early: 0, Misses: 0
545-> Hits: 41, Late: 0, Early: 0, Misses: 0
546-> Hits: 15, Late: 0, Early: 0, Misses: 0
548-> Hits: 238, Late: 1, Early: 0, Misses: 0
549-> Hits: 117, Late: 0, Early: 0, Misses: 0
54b-> Hits: 48348, Late: 1, Early: 0, Misses: 0
54c-> Hits: 289, Late: 0, Early: 0, Misses: 0
54d-> Hits: 100, Late: 0, Early: 0, Misses: 0
54e-> Hits: 2, Late: 0, Early: 0, Misses: 0
54f-> Hits: 2, Late: 0, Early: 0, Misses: 0
550-> Hits: 39, Late: 0, Early: 0, Misses: 0
551-> Hits: 0, Late: 2, Early: 0, Misses: 114
552-> Hits: 3, Late: 1, Early: 0, Misses: 0
553-> Hits: 51412, Late: 1117, Early: 0, Misses: 0
554-> Hits: 23572, Late: 15, Early: 0, Misses: 0
555-> Hits: 120, Late: 1, Early: 0, Misses: 0
556-> Hits: 59417, Late: 0, Early: 0, Misses: 0
557-> Hits: 4735, Late: 0, Early: 0, Misses: 2
558-> Hits: 51282, Late: 1376, Early: 0, Misses: 0
559-> Hits: 1, Late: 0, Early: 0, Misses: 0
55a-> Hits: 2, Late: 3, Early: 0, Misses: 0
55b-> Hits: 6255, Late: 37, Early: 0, Misses: 13
55c-> Hits: 32, Late: 0, Early: 0, Misses: 0
55d-> Hits: 2844, Late: 1, Early: 0, Misses: 0
55e-> Hits: 61, Late: 0, Early: 0, Misses: 58
55f-> Hits: 1552, Late: 1, Early: 0, Misses: 0
560-> Hits: 8137, Late: 2, Early: 0, Misses: 0
561-> Hits: 7, Late: 2, Early: 0, Misses: 1
562-> Hits: 53205, Late: 0, Early: 0, Misses: 0
563-> Hits: 0, Late: 1, Early: 0, Misses: 0
564-> Hits: 54, Late: 10, Early: 0, Misses: 8
565-> Hits: 118, Late: 0, Early: 0, Misses: 0
566-> Hits: 120, Late: 0, Early: 0, Misses: 0
567-> Hits: 1736, Late: 1, Early: 0, Misses: 0
569-> Hits: 2894, Late: 0, Early: 0, Misses: 0
56a-> Hits: 93, Late: 0, Early: 0, Misses: 0
56c-> Hits: 124, Late: 0, Early: 0, Misses: 0
56d-> Hits: 110, Late: 0, Early: 0, Misses: 0
56f-> Hits: 896, Late: 0, Early: 0, Misses: 1
571-> Hits: 18176, Late: 497, Early: 0, Misses: 0
572-> Hits: 13, Late: 0, Early: 0, Misses: 0
573-> Hits: 96, Late: 1, Early: 0, Misses: 0
574-> Hits: 2, Late: 2, Early: 0, Misses: 0
575-> Hits: 2, Late: 0, Early: 0, Misses: 0
577-> Hits: 32, Late: 0, Early: 0, Misses: 0
57a-> Hits: 15, Late: 1, Early: 0, Misses: 0
57c-> Hits: 2, Late: 1, Early: 0, Misses: 116
57d-> Hits: 310, Late: 0, Early: 0, Misses: 6
57e-> Hits: 20, Late: 0, Early: 0, Misses: 0
57f-> Hits: 3097, Late: 0, Early: 0, Misses: 48
580-> Hits: 145, Late: 0, Early: 0, Misses: 0
581-> Hits: 254, Late: 0, Early: 0, Misses: 1
582-> Hits: 15, Late: 0, Early: 0, Misses: 0
583-> Hits: 25927, Late: 810, Early: 0, Misses: 0
584-> Hits: 18, Late: 2, Early: 0, Misses: 54
585-> Hits: 19, Late: 0, Early: 0, Misses: 0
587-> Hits: 6835, Late: 0, Early: 0, Misses: 0
588-> Hits: 131, Late: 1, Early: 0, Misses: 0
589-> Hits: 72, Late: 49, Early: 0, Misses: 0
58a-> Hits: 1562, Late: 0, Early: 0, Misses: 0
58b-> Hits: 3133, Late: 0, Early: 0, Misses: 0
58c-> Hits: 0, Late: 1, Early: 0, Misses: 0
58d-> Hits: 3125, Late: 0, Early: 0, Misses: 99
58f-> Hits: 2, Late: 0, Early: 0, Misses: 0
590-> Hits: 0, Late: 2, Early: 0, Misses: 0
591-> Hits: 115, Late: 0, Early: 0, Misses: 0
592-> Hits: 1648, Late: 4, Early: 0, Misses: 0
593-> Hits: 9, Late: 0, Early: 0, Misses: 0
594-> Hits: 2, Late: 0, Early: 0, Misses: 0
595-> Hits: 6184, Late: 0, Early: 0, Misses: 46
597-> Hits: 26429, Late: 3, Early: 0, Misses: 23
598-> Hits: 55, Late: 0, Early: 0, Misses: 0
59a-> Hits: 460, Late: 0, Early: 0, Misses: 0
59b-> Hits: 1428, Late: 0, Early: 0, Misses: 1
59c-> Hits: 179, Late: 0, Early: 0, Misses: 0
59d-> Hits: 18545, Late: 129, Early: 0, Misses: 0
59e-> Hits: 21672, Late: 3, Early: 0, Misses: 114
59f-> Hits: 2763, Late: 0, Early: 0, Misses: 0
5a0-> Hits: 60, Late: 0, Early: 0, Misses: 0
5a1-> Hits: 2210, Late: 0, Early: 0, Misses: 1
5a2-> Hits: 1308, Late: 0, Early: 0, Misses: 0
5a3-> Hits: 3093, Late: 1, Early: 0, Misses: 40
5a5-> Hits: 121, Late: 0, Early: 0, Misses: 0
5a7-> Hits: 43, Late: 0, Early: 0, Misses: 0
5a9-> Hits: 64, Late: 3, Early: 0, Misses: 0
5aa-> Hits: 685, Late: 2, Early: 0, Misses: 0
5ab-> Hits: 123460, Late: 1521, Early: 0, Misses: 0
5ac-> Hits: 23, Late: 0, Early: 0, Misses: 0
5ad-> Hits: 233, Late: 0, Early: 0, Misses: 1
5ae-> Hits: 2731, Late: 0, Early: 0, Misses: 0
5b0-> Hits: 116260, Late: 27, Early: 0, Misses: 0
5b1-> Hits: 1, Late: 0, Early: 0, Misses: 0
5b2-> Hits: 558, Late: 1, Early: 0, Misses: 0
5b3-> Hits: 20082, Late: 150, Early: 0, Misses: 0
5b4-> Hits: 140, Late: 0, Early: 0, Misses: 0
5b5-> Hits: 98453, Late: 310, Early: 0, Misses: 136
5b6-> Hits: 3017, Late: 0, Early: 0, Misses: 1
5b7-> Hits: 1, Late: 0, Early: 0, Misses: 0
5b8-> Hits: 2, Late: 0, Early: 0, Misses: 0
5b9-> Hits: 3557, Late: 0, Early: 0, Misses: 0
5ba-> Hits: 3020, Late: 8, Early: 0, Misses: 4
5bb-> Hits: 2, Late: 0, Early: 0, Misses: 0
5bc-> Hits: 33, Late: 0, Early: 0, Misses: 0
5bd-> Hits: 5, Late: 0, Early: 0, Misses: 116
5be-> Hits: 26341, Late: 3, Early: 0, Misses: 0
5bf-> Hits: 19, Late: 0, Early: 0, Misses: 0
5c0-> Hits: 54863, Late: 230, Early: 0, Misses: 0
5c1-> Hits: 0, Late: 1, Early: 0, Misses: 1
5c2-> Hits: 2870, Late: 3, Early: 0, Misses: 171
5c3-> Hits: 2, Late: 0, Early: 0, Misses: 0
5c4-> Hits: 1816, Late: 63, Early: 0, Misses: 0
5c5-> Hits: 19555, Late: 4, Early: 0, Misses: 0
5c6-> Hits: 0, Late: 0, Early: 0, Misses: 1
5c7-> Hits: 3793, Late: 207, Early: 0, Misses: 0
5c8-> Hits: 9, Late: 0, Early: 0, Misses: 0
5c9-> Hits: 5, Late: 0, Early: 0, Misses: 0
5ca-> Hits: 3, Late: 5, Early: 0, Misses: 1
5cb-> Hits: 3, Late: 0, Early: 0, Misses: 0
5cc-> Hits: 26755, Late: 108, Early: 0, Misses: 0
5cd-> Hits: 30, Late: 0, Early: 0, Misses: 0
5ce-> Hits: 1472, Late: 1, Early: 0, Misses: 0
5cf-> Hits: 2844, Late: 5, Early: 0, Misses: 286
5d0-> Hits: 0, Late: 2, Early: 0, Misses: 0
5d1-> Hits: 3, Late: 0, Early: 0, Misses: 0
5d2-> Hits: 1, Late: 0, Early: 0, Misses: 0
5d4-> Hits: 139, Late: 0, Early: 0, Misses: 0
5d5-> Hits: 22, Late: 0, Early: 0, Misses: 0
5d6-> Hits: 40, Late: 0, Early: 0, Misses: 0
5d7-> Hits: 116, Late: 1, Early: 0, Misses: 0
5d8-> Hits: 22, Late: 0, Early: 0, Misses: 0
5d9-> Hits: 25959, Late: 6, Early: 0, Misses: 18
5da-> Hits: 10, Late: 0, Early: 0, Misses: 0
5db-> Hits: 1620, Late: 0, Early: 0, Misses: 1
5dc-> Hits: 2, Late: 0, Early: 0, Misses: 0
5dd-> Hits: 8, Late: 0, Early: 0, Misses: 0
5de-> Hits: 43338, Late: 687, Early: 0, Misses: 0
5df-> Hits: 116, Late: 0, Early: 0, Misses: 0
5e0-> Hits: 25208, Late: 50, Early: 0, Misses: 0
5e1-> Hits: 3184, Late: 1, Early: 0, Misses: 0
5e2-> Hits: 3132, Late: 0, Early: 0, Misses: 0
5e3-> Hits: 24529, Late: 14, Early: 0, Misses: 0
5e4-> Hits: 1, Late: 1, Early: 0, Misses: 0
5e5-> Hits: 21685, Late: 3676, Early: 0, Misses: 0
5e6-> Hits: 82, Late: 0, Early: 0, Misses: 0
5e7-> Hits: 116, Late: 1, Early: 0, Misses: 0
5e8-> Hits: 2, Late: 0, Early: 0, Misses: 0
5e9-> Hits: 25030, Late: 303, Early: 0, Misses: 0
5eb-> Hits: 4102, Late: 44, Early: 0, Misses: 1
5ec-> Hits: 139, Late: 0, Early: 0, Misses: 0
5ed-> Hits: 21474, Late: 3535, Early: 0, Misses: 0
5ee-> Hits: 25935, Late: 221, Early: 0, Misses: 0
5ef-> Hits: 0, Late: 1, Early: 0, Misses: 0
5f0-> Hits: 3703, Late: 5, Early: 0, Misses: 578
5f1-> Hits: 21574, Late: 12, Early: 0, Misses: 0
5f2-> Hits: 25166, Late: 23, Early: 0, Misses: 0
5f3-> Hits: 25342, Late: 4, Early: 0, Misses: 507
5f4-> Hits: 367, Late: 0, Early: 0, Misses: 0
5f5-> Hits: 46629, Late: 336, Early: 0, Misses: 0
5f6-> Hits: 32, Late: 0, Early: 0, Misses: 0
5f7-> Hits: 313, Late: 0, Early: 0, Misses: 0
5f8-> Hits: 2, Late: 0, Early: 0, Misses: 0
5f9-> Hits: 3423, Late: 0, Early: 0, Misses: 58
5fb-> Hits: 307, Late: 1, Early: 0, Misses: 0
5fc-> Hits: 197, Late: 0, Early: 0, Misses: 0
5fd-> Hits: 44852, Late: 33, Early: 0, Misses: 0
5fe-> Hits: 15, Late: 0, Early: 0, Misses: 1
5ff-> Hits: 1, Late: 2, Early: 0, Misses: 0
600-> Hits: 4943, Late: 11, Early: 0, Misses: 401
601-> Hits: 2, Late: 0, Early: 0, Misses: 0
603-> Hits: 6262, Late: 87, Early: 0, Misses: 0
604-> Hits: 116, Late: 1, Early: 0, Misses: 0
605-> Hits: 5797, Late: 0, Early: 0, Misses: 0
606-> Hits: 5, Late: 0, Early: 0, Misses: 0
607-> Hits: 40, Late: 0, Early: 0, Misses: 0
608-> Hits: 3104, Late: 6, Early: 0, Misses: 0
60a-> Hits: 3132, Late: 0, Early: 0, Misses: 0
60b-> Hits: 4, Late: 0, Early: 0, Misses: 1
60c-> Hits: 2, Late: 0, Early: 0, Misses: 0
60d-> Hits: 8, Late: 0, Early: 0, Misses: 0
60e-> Hits: 4, Late: 0, Early: 0, Misses: 0
60f-> Hits: 21, Late: 0, Early: 0, Misses: 0
610-> Hits: 99707, Late: 2718, Early: 0, Misses: 22
612-> Hits: 20, Late: 0, Early: 0, Misses: 0
613-> Hits: 49856, Late: 64, Early: 0, Misses: 603
614-> Hits: 4553, Late: 1, Early: 0, Misses: 258
615-> Hits: 53535, Late: 386, Early: 0, Misses: 20
616-> Hits: 3110, Late: 0, Early: 0, Misses: 24
617-> Hits: 2407, Late: 0, Early: 0, Misses: 2
618-> Hits: 4, Late: 0, Early: 0, Misses: 0
619-> Hits: 78814, Late: 208, Early: 0, Misses: 237
61a-> Hits: 2, Late: 0, Early: 0, Misses: 0
61b-> Hits: 4, Late: 0, Early: 0, Misses: 0
61c-> Hits: 2, Late: 0, Early: 0, Misses: 0
61d-> Hits: 113, Late: 0, Early: 0, Misses: 0
61e-> Hits: 3, Late: 0, Early: 0, Misses: 0
61f-> Hits: 0, Late: 12, Early: 0, Misses: 0
620-> Hits: 8188, Late: 15771, Early: 0, Misses: 0
621-> Hits: 60, Late: 0, Early: 0, Misses: 0
622-> Hits: 2, Late: 0, Early: 0, Misses: 1
623-> Hits: 1620, Late: 0, Early: 0, Misses: 0
624-> Hits: 54162, Late: 304, Early: 0, Misses: 30
625-> Hits: 120, Late: 0, Early: 0, Misses: 0
626-> Hits: 16, Late: 0, Early: 0, Misses: 4
627-> Hits: 585, Late: 2, Early: 0, Misses: 0
628-> Hits: 33, Late: 0, Early: 0, Misses: 0
629-> Hits: 8086, Late: 21, Early: 0, Misses: 148
62a-> Hits: 858, Late: 79, Early: 0, Misses: 0
62b-> Hits: 66, Late: 0, Early: 0, Misses: 0
62c-> Hits: 128, Late: 0, Early: 0, Misses: 0
62d-> Hits: 50613, Late: 520, Early: 0, Misses: 0
62e-> Hits: 0, Late: 0, Early: 0, Misses: 1
62f-> Hits: 2, Late: 0, Early: 0, Misses: 0
630-> Hits: 3782, Late: 2851, Early: 0, Misses: 0
632-> Hits: 50258, Late: 51, Early: 0, Misses: 463
634-> Hits: 6565, Late: 6348, Early: 0, Misses: 0
635-> Hits: 56, Late: 0, Early: 0, Misses: 0
636-> Hits: 5, Late: 0, Early: 0, Misses: 0
638-> Hits: 150, Late: 0, Early: 0, Misses: 0
639-> Hits: 19949, Late: 43, Early: 0, Misses: 405
63a-> Hits: 39557, Late: 1, Early: 0, Misses: 0
63b-> Hits: 1, Late: 1, Early: 0, Misses: 3
63c-> Hits: 1, Late: 0, Early: 0, Misses: 0
63d-> Hits: 9, Late: 0, Early: 0, Misses: 0
63e-> Hits: 3299, Late: 0, Early: 0, Misses: 0
640-> Hits: 1765, Late: 0, Early: 0, Misses: 0
641-> Hits: 72, Late: 0, Early: 0, Misses: 0
642-> Hits: 48649, Late: 602, Early: 0, Misses: 0
643-> Hits: 372, Late: 0, Early: 0, Misses: 0
644-> Hits: 144, Late: 2, Early: 0, Misses: 0
645-> Hits: 4, Late: 0, Early: 0, Misses: 2
646-> Hits: 71494, Late: 49, Early: 0, Misses: 0
647-> Hits: 5443, Late: 0, Early: 0, Misses: 0
648-> Hits: 3269, Late: 73, Early: 0, Misses: 161
649-> Hits: 11, Late: 0, Early: 0, Misses: 0
64a-> Hits: 52, Late: 0, Early: 0, Misses: 0
64b-> Hits: 29799, Late: 61, Early: 0, Misses: 0
64c-> Hits: 1, Late: 0, Early: 0, Misses: 0
64d-> Hits: 41, Late: 0, Early: 0, Misses: 0
64e-> Hits: 48192, Late: 7, Early: 0, Misses: 580
64f-> Hits: 14, Late: 0, Early: 0, Misses: 0
650-> Hits: 1, Late: 1, Early: 0, Misses: 0
651-> Hits: 1350, Late: 0, Early: 0, Misses: 1
652-> Hits: 11, Late: 0, Early: 0, Misses: 0
653-> Hits: 24895, Late: 352, Early: 0, Misses: 0
654-> Hits: 116, Late: 1, Early: 0, Misses: 0
656-> Hits: 2909, Late: 0, Early: 0, Misses: 35
657-> Hits: 0, Late: 1, Early: 0, Misses: 0
658-> Hits: 1627, Late: 0, Early: 0, Misses: 0
659-> Hits: 50758, Late: 1034, Early: 0, Misses: 0
65a-> Hits: 15, Late: 0, Early: 0, Misses: 0
65b-> Hits: 3011, Late: 13, Early: 0, Misses: 1
65c-> Hits: 1, Late: 0, Early: 0, Misses: 0
65d-> Hits: 3461, Late: 0, Early: 0, Misses: 0
65e-> Hits: 10, Late: 2, Early: 0, Misses: 0
660-> Hits: 769, Late: 0, Early: 0, Misses: 5
661-> Hits: 740, Late: 1, Early: 0, Misses: 1
662-> Hits: 6165, Late: 0, Early: 0, Misses: 0
663-> Hits: 26155, Late: 5, Early: 0, Misses: 391
664-> Hits: 2, Late: 0, Early: 0, Misses: 0
665-> Hits: 47590, Late: 212, Early: 0, Misses: 950
666-> Hits: 625, Late: 4, Early: 0, Misses: 0
667-> Hits: 9, Late: 0, Early: 0, Misses: 0
668-> Hits: 25789, Late: 2, Early: 0, Misses: 0
669-> Hits: 5, Late: 0, Early: 0, Misses: 0
66a-> Hits: 3, Late: 0, Early: 0, Misses: 2
66b-> Hits: 1, Late: 1, Early: 0, Misses: 0
[...]
e72-> Hits: 1598, Late: 0, Early: 0, Misses: 0
e73-> Hits: 2, Late: 1, Early: 0, Misses: 0
e74-> Hits: 62, Late: 0, Early: 0, Misses: 0
e75-> Hits: 1964, Late: 0, Early: 0, Misses: 0
e76-> Hits: 2, Late: 0, Early: 0, Misses: 0
e77-> Hits: 47, Late: 0, Early: 0, Misses: 2
e78-> Hits: 2, Late: 0, Early: 0, Misses: 0
e79-> Hits: 60, Late: 0, Early: 0, Misses: 0
e7a-> Hits: 71, Late: 3, Early: 0, Misses: 0
e7b-> Hits: 17081, Late: 3007, Early: 0, Misses: 0
e7c-> Hits: 814, Late: 0, Early: 0, Misses: 0
e7d-> Hits: 3069, Late: 0, Early: 0, Misses: 0
e80-> Hits: 19917, Late: 4, Early: 0, Misses: 0
e82-> Hits: 60, Late: 2, Early: 0, Misses: 0
e83-> Hits: 2242, Late: 0, Early: 0, Misses: 0
e84-> Hits: 4, Late: 0, Early: 0, Misses: 0
e85-> Hits: 6083, Late: 113, Early: 0, Misses: 6
e86-> Hits: 10, Late: 0, Early: 0, Misses: 0
e87-> Hits: 0, Late: 1, Early: 0, Misses: 0
e88-> Hits: 0, Late: 2, Early: 0, Misses: 0
e89-> Hits: 3, Late: 0, Early: 0, Misses: 0
e8a-> Hits: 198, Late: 0, Early: 0, Misses: 0
e8b-> Hits: 327, Late: 3, Early: 0, Misses: 0
e8c-> Hits: 22471, Late: 0, Early: 0, Misses: 0
e8d-> Hits: 3142, Late: 2, Early: 0, Misses: 0
e8e-> Hits: 3, Late: 0, Early: 0, Misses: 0
e8f-> Hits: 4, Late: 11, Early: 0, Misses: 0
e90-> Hits: 27, Late: 0, Early: 0, Misses: 0
e91-> Hits: 19, Late: 0, Early: 0, Misses: 0
e92-> Hits: 19907, Late: 2723, Early: 0, Misses: 15
e93-> Hits: 3, Late: 0, Early: 0, Misses: 0
e94-> Hits: 3132, Late: 0, Early: 0, Misses: 0
e95-> Hits: 3, Late: 0, Early: 0, Misses: 0
e96-> Hits: 55, Late: 0, Early: 0, Misses: 0
e97-> Hits: 22134, Late: 185, Early: 0, Misses: 0
e98-> Hits: 9, Late: 1, Early: 0, Misses: 1
e99-> Hits: 1709, Late: 0, Early: 0, Misses: 0
e9a-> Hits: 1622, Late: 0, Early: 0, Misses: 0
e9b-> Hits: 4, Late: 0, Early: 0, Misses: 0
e9c-> Hits: 377, Late: 0, Early: 0, Misses: 0
e9d-> Hits: 5, Late: 1, Early: 0, Misses: 0
e9f-> Hits: 118, Late: 0, Early: 0, Misses: 0
ea0-> Hits: 63, Late: 4, Early: 0, Misses: 2
ea1-> Hits: 19466, Late: 0, Early: 0, Misses: 1
ea2-> Hits: 1623, Late: 0, Early: 0, Misses: 0
ea3-> Hits: 1, Late: 0, Early: 0, Misses: 0
ea4-> Hits: 1436, Late: 4, Early: 0, Misses: 0
ea5-> Hits: 125, Late: 0, Early: 0, Misses: 0
ea7-> Hits: 117, Late: 0, Early: 0, Misses: 0
ea8-> Hits: 3, Late: 3, Early: 0, Misses: 0
ea9-> Hits: 19431, Late: 0, Early: 0, Misses: 0
eaa-> Hits: 41, Late: 0, Early: 0, Misses: 0
eab-> Hits: 809, Late: 0, Early: 0, Misses: 0
eac-> Hits: 633, Late: 0, Early: 0, Misses: 0
ead-> Hits: 2, Late: 0, Early: 0, Misses: 0
eaf-> Hits: 177, Late: 1, Early: 0, Misses: 0
eb0-> Hits: 0, Late: 5, Early: 0, Misses: 0
eb1-> Hits: 1708, Late: 0, Early: 0, Misses: 0
eb2-> Hits: 3, Late: 0, Early: 0, Misses: 0
eb3-> Hits: 3, Late: 0, Early: 0, Misses: 0
eb4-> Hits: 340, Late: 2, Early: 0, Misses: 0
eb6-> Hits: 1, Late: 1, Early: 0, Misses: 0
eb7-> Hits: 1, Late: 0, Early: 0, Misses: 0
eb8-> Hits: 116, Late: 1, Early: 0, Misses: 0
eb9-> Hits: 3, Late: 0, Early: 0, Misses: 0
eba-> Hits: 3, Late: 0, Early: 0, Misses: 0
ebb-> Hits: 109, Late: 0, Early: 0, Misses: 0
ebc-> Hits: 1548, Late: 0, Early: 0, Misses: 0
ebe-> Hits: 51, Late: 0, Early: 0, Misses: 0
ebf-> Hits: 1, Late: 0, Early: 0, Misses: 0
ec0-> Hits: 23454, Late: 2890, Early: 0, Misses: 0
ec1-> Hits: 1, Late: 0, Early: 0, Misses: 0
ec2-> Hits: 3, Late: 0, Early: 0, Misses: 0
ec3-> Hits: 5, Late: 0, Early: 0, Misses: 0
ec4-> Hits: 6708, Late: 963, Early: 0, Misses: 0
ec5-> Hits: 3184, Late: 0, Early: 0, Misses: 0
ec7-> Hits: 1620, Late: 0, Early: 0, Misses: 0
ec8-> Hits: 29, Late: 1, Early: 0, Misses: 36
ec9-> Hits: 22108, Late: 3542, Early: 0, Misses: 0
eca-> Hits: 4, Late: 2, Early: 0, Misses: 0
ecb-> Hits: 75, Late: 15, Early: 0, Misses: 1
ecc-> Hits: 412, Late: 1, Early: 0, Misses: 37
ecd-> Hits: 25126, Late: 463, Early: 0, Misses: 0
ece-> Hits: 5657, Late: 1235, Early: 0, Misses: 1
ed0-> Hits: 5, Late: 4, Early: 0, Misses: 1
ed1-> Hits: 10, Late: 0, Early: 0, Misses: 0
ed2-> Hits: 2, Late: 0, Early: 0, Misses: 0
ed3-> Hits: 23639, Late: 173, Early: 0, Misses: 0
ed4-> Hits: 322, Late: 0, Early: 0, Misses: 0
ed5-> Hits: 169, Late: 21, Early: 0, Misses: 0
ed7-> Hits: 1, Late: 0, Early: 0, Misses: 0
ed8-> Hits: 2, Late: 4, Early: 0, Misses: 0
eda-> Hits: 3, Late: 2, Early: 0, Misses: 0
edb-> Hits: 2, Late: 0, Early: 0, Misses: 0
edc-> Hits: 25, Late: 1, Early: 0, Misses: 37
edd-> Hits: 91, Late: 0, Early: 0, Misses: 0
ede-> Hits: 1562, Late: 1, Early: 0, Misses: 0
edf-> Hits: 1650, Late: 0, Early: 0, Misses: 0
ee0-> Hits: 4542, Late: 3, Early: 0, Misses: 50
ee1-> Hits: 1710, Late: 0, Early: 0, Misses: 0
ee5-> Hits: 345, Late: 0, Early: 0, Misses: 0
ee6-> Hits: 11, Late: 0, Early: 0, Misses: 0
ee7-> Hits: 3130, Late: 0, Early: 0, Misses: 0
ee8-> Hits: 17, Late: 1, Early: 0, Misses: 50
ee9-> Hits: 15, Late: 0, Early: 0, Misses: 0
eea-> Hits: 6341, Late: 29, Early: 0, Misses: 0
eeb-> Hits: 10, Late: 0, Early: 0, Misses: 0
eec-> Hits: 2, Late: 0, Early: 0, Misses: 0
eed-> Hits: 64, Late: 0, Early: 0, Misses: 0
eee-> Hits: 67, Late: 0, Early: 0, Misses: 0
ef0-> Hits: 46076, Late: 226, Early: 0, Misses: 780
ef1-> Hits: 10, Late: 2, Early: 0, Misses: 0
ef3-> Hits: 2, Late: 0, Early: 0, Misses: 0
ef4-> Hits: 2, Late: 0, Early: 0, Misses: 0
ef5-> Hits: 46183, Late: 241, Early: 0, Misses: 484
ef6-> Hits: 2, Late: 6, Early: 0, Misses: 0
ef7-> Hits: 0, Late: 2, Early: 0, Misses: 0
ef8-> Hits: 7, Late: 1, Early: 0, Misses: 1
ef9-> Hits: 3145, Late: 0, Early: 0, Misses: 0
efa-> Hits: 1620, Late: 0, Early: 0, Misses: 0
efb-> Hits: 2, Late: 0, Early: 0, Misses: 0
efd-> Hits: 2, Late: 1, Early: 0, Misses: 0
efe-> Hits: 16637, Late: 48, Early: 0, Misses: 0
eff-> Hits: 76, Late: 0, Early: 0, Misses: 0
f00-> Hits: 54216, Late: 149, Early: 0, Misses: 0
f01-> Hits: 42, Late: 0, Early: 0, Misses: 0
f02-> Hits: 4, Late: 0, Early: 0, Misses: 0
f03-> Hits: 8, Late: 0, Early: 0, Misses: 0
f05-> Hits: 47753, Late: 0, Early: 0, Misses: 0
f06-> Hits: 1570, Late: 0, Early: 0, Misses: 0
f07-> Hits: 118, Late: 0, Early: 0, Misses: 0
f08-> Hits: 3, Late: 0, Early: 0, Misses: 0
f09-> Hits: 23210, Late: 1165, Early: 0, Misses: 0
f0a-> Hits: 3, Late: 0, Early: 0, Misses: 0
f0b-> Hits: 7, Late: 0, Early: 0, Misses: 0
f0c-> Hits: 61, Late: 0, Early: 0, Misses: 0
f0d-> Hits: 1560, Late: 0, Early: 0, Misses: 0
f0e-> Hits: 28470, Late: 78, Early: 0, Misses: 0
f0f-> Hits: 16179, Late: 66, Early: 0, Misses: 0
f10-> Hits: 13, Late: 3, Early: 0, Misses: 0
f12-> Hits: 26, Late: 2, Early: 0, Misses: 0
f13-> Hits: 28359, Late: 124, Early: 0, Misses: 0
f14-> Hits: 2, Late: 1, Early: 0, Misses: 0
f15-> Hits: 123, Late: 0, Early: 0, Misses: 0
f16-> Hits: 10, Late: 0, Early: 0, Misses: 0
f18-> Hits: 3, Late: 2, Early: 0, Misses: 0
f19-> Hits: 48, Late: 0, Early: 0, Misses: 0
f1a-> Hits: 7, Late: 0, Early: 0, Misses: 0
f1b-> Hits: 4005, Late: 2, Early: 0, Misses: 0
f1c-> Hits: 2, Late: 0, Early: 0, Misses: 0
f1e-> Hits: 10, Late: 0, Early: 0, Misses: 0
f1f-> Hits: 28440, Late: 6, Early: 0, Misses: 1
f20-> Hits: 610, Late: 111, Early: 0, Misses: 0
f21-> Hits: 2, Late: 0, Early: 0, Misses: 0
f22-> Hits: 378, Late: 0, Early: 0, Misses: 0
f23-> Hits: 3132, Late: 0, Early: 0, Misses: 0
f24-> Hits: 55591, Late: 199, Early: 0, Misses: 0
f26-> Hits: 0, Late: 1, Early: 0, Misses: 0
f27-> Hits: 1, Late: 0, Early: 0, Misses: 0
f28-> Hits: 1, Late: 0, Early: 0, Misses: 0
f29-> Hits: 7583, Late: 25, Early: 0, Misses: 0
f2a-> Hits: 600, Late: 2814, Early: 0, Misses: 0
f2b-> Hits: 334, Late: 0, Early: 0, Misses: 0
f2c-> Hits: 9, Late: 0, Early: 0, Misses: 0
f2d-> Hits: 0, Late: 2, Early: 0, Misses: 0
f2e-> Hits: 1727, Late: 2, Early: 0, Misses: 118
f2f-> Hits: 2, Late: 0, Early: 0, Misses: 4
f30-> Hits: 3072, Late: 1, Early: 0, Misses: 1
f31-> Hits: 2, Late: 0, Early: 0, Misses: 0
f32-> Hits: 122, Late: 0, Early: 0, Misses: 0
f33-> Hits: 6038, Late: 258, Early: 0, Misses: 0
f34-> Hits: 16126, Late: 60, Early: 0, Misses: 0
f35-> Hits: 248, Late: 8, Early: 0, Misses: 0
f36-> Hits: 37, Late: 0, Early: 0, Misses: 0
f37-> Hits: 1, Late: 1, Early: 0, Misses: 0
f38-> Hits: 3, Late: 2, Early: 0, Misses: 0
f39-> Hits: 13434, Late: 57, Early: 0, Misses: 0
f3a-> Hits: 1694, Late: 0, Early: 0, Misses: 0
f3b-> Hits: 20, Late: 0, Early: 0, Misses: 0
f3c-> Hits: 2, Late: 0, Early: 0, Misses: 0
f3d-> Hits: 10, Late: 0, Early: 0, Misses: 0
f3e-> Hits: 3068, Late: 0, Early: 0, Misses: 0
f40-> Hits: 1416, Late: 107, Early: 0, Misses: 0
f41-> Hits: 1, Late: 0, Early: 0, Misses: 1
f42-> Hits: 2772, Late: 212, Early: 0, Misses: 0
f43-> Hits: 3227, Late: 0, Early: 0, Misses: 0
f44-> Hits: 73, Late: 0, Early: 0, Misses: 45
f46-> Hits: 37, Late: 0, Early: 0, Misses: 0
f47-> Hits: 9, Late: 1, Early: 0, Misses: 0
f48-> Hits: 975, Late: 402, Early: 0, Misses: 0
f49-> Hits: 22145, Late: 897, Early: 0, Misses: 0
f4a-> Hits: 3200, Late: 0, Early: 0, Misses: 0
f4b-> Hits: 3105, Late: 0, Early: 0, Misses: 0
f4c-> Hits: 5, Late: 0, Early: 0, Misses: 0
f4d-> Hits: 19529, Late: 0, Early: 0, Misses: 38
f4e-> Hits: 2569, Late: 0, Early: 0, Misses: 0
f4f-> Hits: 1, Late: 0, Early: 0, Misses: 2
f50-> Hits: 307, Late: 26, Early: 0, Misses: 0
f51-> Hits: 1683, Late: 0, Early: 0, Misses: 0
f52-> Hits: 3135, Late: 1, Early: 0, Misses: 0
f55-> Hits: 27703, Late: 26, Early: 0, Misses: 0
f56-> Hits: 543, Late: 0, Early: 0, Misses: 0
f57-> Hits: 4, Late: 0, Early: 0, Misses: 0
f58-> Hits: 5, Late: 0, Early: 0, Misses: 0
f59-> Hits: 4591, Late: 785, Early: 0, Misses: 0
f5a-> Hits: 9951, Late: 4, Early: 0, Misses: 111
f5b-> Hits: 118, Late: 0, Early: 0, Misses: 0
f5c-> Hits: 2, Late: 0, Early: 0, Misses: 0
f5d-> Hits: 0, Late: 2, Early: 0, Misses: 0
f5e-> Hits: 1, Late: 0, Early: 0, Misses: 0
f5f-> Hits: 2, Late: 0, Early: 0, Misses: 0
f60-> Hits: 26265, Late: 7426, Early: 0, Misses: 2
f61-> Hits: 27778, Late: 12, Early: 0, Misses: 0
f62-> Hits: 2, Late: 0, Early: 0, Misses: 0
f64-> Hits: 1539, Late: 0, Early: 0, Misses: 0
f65-> Hits: 310, Late: 2, Early: 0, Misses: 17
f67-> Hits: 118, Late: 0, Early: 0, Misses: 0
f68-> Hits: 33, Late: 0, Early: 0, Misses: 0
f69-> Hits: 1415, Late: 636, Early: 0, Misses: 0
f6a-> Hits: 32142, Late: 103, Early: 0, Misses: 19
f6b-> Hits: 21807, Late: 5, Early: 0, Misses: 293
f6c-> Hits: 26370, Late: 6, Early: 0, Misses: 571
f6d-> Hits: 0, Late: 2, Early: 0, Misses: 0
f6e-> Hits: 117, Late: 0, Early: 0, Misses: 2
f6f-> Hits: 2, Late: 0, Early: 0, Misses: 0
f70-> Hits: 1511, Late: 123, Early: 0, Misses: 0
f71-> Hits: 27827, Late: 208, Early: 0, Misses: 1
f72-> Hits: 24862, Late: 5811, Early: 0, Misses: 0
f73-> Hits: 1624, Late: 90, Early: 0, Misses: 0
f74-> Hits: 5, Late: 0, Early: 0, Misses: 0
f75-> Hits: 5, Late: 0, Early: 0, Misses: 0
f76-> Hits: 1623, Late: 1, Early: 0, Misses: 0
f77-> Hits: 1, Late: 0, Early: 0, Misses: 0
f78-> Hits: 28389, Late: 7, Early: 0, Misses: 0
f79-> Hits: 1676, Late: 0, Early: 0, Misses: 0
f7a-> Hits: 2, Late: 0, Early: 0, Misses: 1
f7b-> Hits: 1583, Late: 298, Early: 0, Misses: 0
f7c-> Hits: 27974, Late: 131, Early: 0, Misses: 119
f7e-> Hits: 23673, Late: 1, Early: 0, Misses: 0
f7f-> Hits: 5, Late: 0, Early: 0, Misses: 0
f80-> Hits: 8545, Late: 5, Early: 0, Misses: 81
f81-> Hits: 27960, Late: 120, Early: 0, Misses: 0
f82-> Hits: 1563, Late: 0, Early: 0, Misses: 0
f84-> Hits: 53, Late: 0, Early: 0, Misses: 0
f85-> Hits: 8701, Late: 0, Early: 0, Misses: 51
f86-> Hits: 25861, Late: 143, Early: 0, Misses: 0
f87-> Hits: 1551, Late: 0, Early: 0, Misses: 0
f88-> Hits: 5, Late: 1, Early: 0, Misses: 0
f89-> Hits: 1368, Late: 718, Early: 0, Misses: 1
f8a-> Hits: 0, Late: 1, Early: 0, Misses: 0
f8b-> Hits: 2, Late: 0, Early: 0, Misses: 0
f8c-> Hits: 116, Late: 0, Early: 0, Misses: 0
f8d-> Hits: 186, Late: 29, Early: 0, Misses: 0
f8e-> Hits: 8735, Late: 1, Early: 0, Misses: 0
f8f-> Hits: 3, Late: 0, Early: 0, Misses: 0
f90-> Hits: 6, Late: 2, Early: 0, Misses: 0
f91-> Hits: 1623, Late: 0, Early: 0, Misses: 0
f92-> Hits: 62, Late: 1, Early: 0, Misses: 0
f93-> Hits: 8695, Late: 0, Early: 0, Misses: 0
f94-> Hits: 2122, Late: 194, Early: 0, Misses: 9
f95-> Hits: 29836, Late: 171, Early: 0, Misses: 0
f96-> Hits: 1, Late: 0, Early: 0, Misses: 0
f97-> Hits: 26506, Late: 5, Early: 0, Misses: 571
f98-> Hits: 1671, Late: 145, Early: 0, Misses: 0
f99-> Hits: 3, Late: 0, Early: 0, Misses: 0
f9a-> Hits: 28355, Late: 6, Early: 0, Misses: 0
f9b-> Hits: 1361, Late: 606, Early: 0, Misses: 0
f9c-> Hits: 27572, Late: 220, Early: 0, Misses: 0
f9d-> Hits: 16, Late: 1, Early: 0, Misses: 0
f9e-> Hits: 1945, Late: 14, Early: 0, Misses: 0
f9f-> Hits: 3045, Late: 0, Early: 0, Misses: 0
fa0-> Hits: 1513, Late: 3, Early: 0, Misses: 0
fa3-> Hits: 1, Late: 0, Early: 0, Misses: 0
fa4-> Hits: 51, Late: 1, Early: 0, Misses: 0
fa5-> Hits: 0, Late: 1, Early: 0, Misses: 0
fa7-> Hits: 28110, Late: 3, Early: 0, Misses: 117
fa8-> Hits: 3156, Late: 0, Early: 0, Misses: 63
fa9-> Hits: 891, Late: 0, Early: 0, Misses: 0
faa-> Hits: 27881, Late: 12, Early: 0, Misses: 365
fac-> Hits: 27591, Late: 120, Early: 0, Misses: 0
fad-> Hits: 3, Late: 0, Early: 0, Misses: 0
fae-> Hits: 62, Late: 1, Early: 0, Misses: 0
faf-> Hits: 27191, Late: 143, Early: 0, Misses: 0
fb0-> Hits: 34, Late: 3, Early: 0, Misses: 85
fb1-> Hits: 3816, Late: 0, Early: 0, Misses: 0
fb2-> Hits: 4439, Late: 566, Early: 0, Misses: 0
fb3-> Hits: 1945, Late: 292, Early: 0, Misses: 0
fb4-> Hits: 117, Late: 0, Early: 0, Misses: 0
fb5-> Hits: 0, Late: 1, Early: 0, Misses: 0
fb6-> Hits: 5, Late: 1, Early: 0, Misses: 0
fb7-> Hits: 10599, Late: 0, Early: 0, Misses: 0
fb8-> Hits: 13, Late: 0, Early: 0, Misses: 0
fb9-> Hits: 4595, Late: 92, Early: 0, Misses: 0
fba-> Hits: 0, Late: 1, Early: 0, Misses: 0
fbb-> Hits: 98, Late: 1, Early: 0, Misses: 0
fbc-> Hits: 1, Late: 0, Early: 0, Misses: 0
fbd-> Hits: 0, Late: 1, Early: 0, Misses: 0
fbe-> Hits: 161, Late: 0, Early: 0, Misses: 0
fbf-> Hits: 24822, Late: 41, Early: 0, Misses: 0
fc0-> Hits: 1477, Late: 5, Early: 0, Misses: 1
fc1-> Hits: 255, Late: 0, Early: 0, Misses: 0
fc2-> Hits: 4, Late: 0, Early: 0, Misses: 0
fc6-> Hits: 1569, Late: 0, Early: 0, Misses: 0
fc7-> Hits: 27708, Late: 213, Early: 0, Misses: 0
fc8-> Hits: 4698, Late: 1, Early: 0, Misses: 0
fc9-> Hits: 257, Late: 0, Early: 0, Misses: 0
fcb-> Hits: 3006, Late: 1, Early: 0, Misses: 0
fcc-> Hits: 4, Late: 0, Early: 0, Misses: 0
fcd-> Hits: 1621, Late: 0, Early: 0, Misses: 0
fce-> Hits: 25, Late: 0, Early: 0, Misses: 0
fcf-> Hits: 2, Late: 0, Early: 0, Misses: 0
fd0-> Hits: 3254, Late: 239, Early: 0, Misses: 116
fd1-> Hits: 2, Late: 0, Early: 0, Misses: 0
fd2-> Hits: 84, Late: 0, Early: 0, Misses: 0
fd4-> Hits: 391, Late: 18, Early: 0, Misses: 0
fd5-> Hits: 1, Late: 0, Early: 0, Misses: 0
fd6-> Hits: 19, Late: 0, Early: 0, Misses: 0
fd8-> Hits: 4, Late: 1, Early: 0, Misses: 0
fd9-> Hits: 22215, Late: 1, Early: 0, Misses: 0
fda-> Hits: 1608, Late: 1, Early: 0, Misses: 5
fdb-> Hits: 1609, Late: 2, Early: 0, Misses: 0
fdc-> Hits: 1, Late: 0, Early: 0, Misses: 0
fdd-> Hits: 3060, Late: 0, Early: 0, Misses: 0
fde-> Hits: 10143, Late: 0, Early: 0, Misses: 0
fdf-> Hits: 3132, Late: 0, Early: 0, Misses: 0
fe0-> Hits: 9243, Late: 2264, Early: 0, Misses: 0
fe1-> Hits: 1, Late: 1, Early: 0, Misses: 0
fe3-> Hits: 1617, Late: 0, Early: 0, Misses: 0
fe4-> Hits: 298, Late: 30, Early: 0, Misses: 0
fe5-> Hits: 4, Late: 0, Early: 0, Misses: 0
fe6-> Hits: 1481, Late: 0, Early: 0, Misses: 116
fe7-> Hits: 118, Late: 0, Early: 0, Misses: 0
fe8-> Hits: 2003, Late: 40, Early: 0, Misses: 0
fe9-> Hits: 2100, Late: 1, Early: 0, Misses: 0
fea-> Hits: 6197, Late: 19, Early: 0, Misses: 0
feb-> Hits: 123, Late: 8, Early: 0, Misses: 0
fec-> Hits: 179, Late: 0, Early: 0, Misses: 0
fed-> Hits: 121, Late: 32, Early: 0, Misses: 0
fee-> Hits: 76, Late: 0, Early: 0, Misses: 0
fef-> Hits: 116, Late: 2, Early: 0, Misses: 0
ff0-> Hits: 284, Late: 3, Early: 0, Misses: 0
ff1-> Hits: 4, Late: 0, Early: 0, Misses: 0
ff2-> Hits: 1976, Late: 6, Early: 0, Misses: 3
ff3-> Hits: 5606, Late: 769, Early: 0, Misses: 0
ff4-> Hits: 128, Late: 0, Early: 0, Misses: 0
ff5-> Hits: 11, Late: 1, Early: 0, Misses: 0
ff6-> Hits: 0, Late: 1, Early: 0, Misses: 0
ff7-> Hits: 2, Late: 0, Early: 0, Misses: 0
ff8-> Hits: 260, Late: 0, Early: 0, Misses: 0
ff9-> Hits: 13, Late: 0, Early: 0, Misses: 0
ffa-> Hits: 118, Late: 0, Early: 0, Misses: 0
ffb-> Hits: 37, Late: 1, Early: 0, Misses: 0
ffc-> Hits: 215, Late: 0, Early: 0, Misses: 0
ffd-> Hits: 14, Late: 2, Early: 0, Misses: 0
ffe-> Hits: 1779, Late: 0, Early: 0, Misses: 0
Total misses (from ip) 516924
Total accesses (misses) 23835087 516924
Pref: Addr 0 IP 0 Current 0
 All Calls: 2429786
 Critical Calls: 2429786
------------------
Depth Distribution
------------------
depth 0: 0
depth 1: 2360517
depth 2: 1498074
depth 3: 1273132
depth 4: 1098864
depth 5: 928721
depth 6: 757299
depth 7: 539660
depth 8: 338003
depth 9: 185896
depth 10: 78584
depth 11: 39651
depth 12: 18884
depth 13: 4826
depth 14: 3
depth 15: 3
depth 16: 0
depth 17: 0
depth 18: 0
depth 19: 0
depth 20: 0
depth 21: 0
depth 22: 0
depth 23: 0
depth 24: 0
depth 25: 0
depth 26: 0
depth 27: 0
depth 28: 0
depth 29: 0
Total: 9122117
-----------------------------
-----------------------------
	Captured at Filter
-----------------------------
depth 0: 0
depth 1: 72354
depth 2: 58752
depth 3: 53036
depth 4: 46986
depth 5: 40927
depth 6: 34449
depth 7: 26107
depth 8: 17655
depth 9: 9443
depth 10: 3310
depth 11: 1533
depth 12: 753
depth 13: 193
depth 14: 0
depth 15: 1
depth 16: 0
depth 17: 0
depth 18: 0
depth 19: 0
depth 20: 0
depth 21: 0
depth 22: 0
depth 23: 0
depth 24: 0
depth 25: 0
depth 26: 0
depth 27: 0
depth 28: 0
depth 29: 0
-----------------------------
-----------------------------
		Lost at Page
-----------------------------
depth 0: 0
depth 1: 59626
depth 2: 63095
depth 3: 79459
depth 4: 94160
depth 5: 104357
depth 6: 108068
depth 7: 98333
depth 8: 78051
depth 9: 50184
depth 10: 22436
depth 11: 12466
depth 12: 6567
depth 13: 1949
depth 14: 0
depth 15: 0
depth 16: 0
depth 17: 0
depth 18: 0
depth 19: 0
depth 20: 0
depth 21: 0
depth 22: 0
depth 23: 0
depth 24: 0
depth 25: 0
depth 26: 0
depth 27: 0
depth 28: 0
depth 29: 0
-----------------------------
-----------------------------
	Lost due to PQ Size
-----------------------------
1026912
-----------------------------
ST read accesses: 1509085
ST write accesses: 26498
PT read accesses: 38156984
PT write accesses: 2251156
FILTER read accesses: 8462895
FILTER write accesses: 2246732
GHR read accesses: 2166265
GHR write accesses: 367908
GHR counter read accesses: 32502638
GHR counter write accesses: 2450742
ST tag read accesses: 605722332
ST tag write accesses: 23927238

DRAM Statistics
 CHANNEL 0
 RQ ROW_BUFFER_HIT:     368547  ROW_BUFFER_MISS:     912683
 DBUS_CONGESTED:        748
 WQ ROW_BUFFER_HIT:      96585  ROW_BUFFER_MISS:     290947  FULL:          0

 AVG_CONGESTED_CYCLE: 4
 All warmup complete: 2
Channel 0 Bank busy for read cycles: 0
Channel 0 Bank busy for write cycles: 0
Channel 0
Rank 0
0banks busy for read cycles: 16850468
0banks busy for write cycles: 13955
1banks busy for read cycles: 7507917
1banks busy for write cycles: 1663599
2banks busy for read cycles: 6415550
2banks busy for write cycles: 901339
3banks busy for read cycles: 4938194
3banks busy for write cycles: 598357
4banks busy for read cycles: 4300082
4banks busy for write cycles: 446003
5banks busy for read cycles: 4127681
5banks busy for write cycles: 368332
6banks busy for read cycles: 3880610
6banks busy for write cycles: 327581
7banks busy for read cycles: 3693433
7banks busy for write cycles: 781796
8banks busy for read cycles: 5051399
8banks busy for write cycles: 6628812

CPU 0 Branch Prediction Accuracy: 94.351% MPKI: 2.76312 Average ROB Occupancy at Mispredict: 51.1956
Branch types
NOT_BRANCH: 47553985 95.108%
BRANCH_DIRECT_JUMP: 3916 0.007832%
BRANCH_INDIRECT: 0 0%
BRANCH_CONDITIONAL: 2424085 4.84817%
BRANCH_DIRECT_CALL: 8847 0.017694%
BRANCH_INDIRECT_CALL: 0 0%
BRANCH_RETURN: 8845 0.01769%
BRANCH_OTHER: 0 0%

DRAM PAGES: 1048576
Allocated PAGES: 7750
