Initialize SIGNATURE TABLE
ST_SET: 1
ST_WAY: 256
ST_TAG_BIT: 16
ST_TAG_MASK: ffff

Initialize PATTERN TABLE
PT_SET: 512
PT_WAY: 4
SIG_DELTA_BIT: 7
C_SIG_BIT: 4
C_DELTA_BIT: 4

Initialize PREFETCH FILTER
FILTER_SET: 1024

*** ChampSim Multicore Out-of-Order Simulator ***

Warmup Instructions: 50000000
Simulation Instructions: 50000000
Number of CPUs: 1
LLC sets: 2048
LLC ways: 16
Off-chip DRAM Size: 4096 MB Channels: 1 Width: 64-bit Data Rate: 6400 MT/s
CPU 0 runs ./tracer/traces/607.cactuBSSN_s-3477B.champsimtrace.xz
.xz
CPU 0 Bimodal branch predictor
BTB has LRU replacement policy
ITLB has LRU replacement policy
DTLB has LRU replacement policy
STLB has LRU replacement policy
L1I has LRU replacement policy
CPU 0 L1D Berti prefetcher
L1D has LRU replacement policy
ST_WAYS: 256
PT_SETS: 512
Initialize SRRIP state for L2C
Initialize SHIP state
Assign rand_sets[0]: 454  LLC: 2048
rand_sets[0]: 454
Assign rand_sets[1]: 1662  LLC: 2048
rand_sets[1]: 1662
Assign rand_sets[2]: 1921  LLC: 2048
rand_sets[2]: 1921
Assign rand_sets[3]: 1131  LLC: 2048
rand_sets[3]: 1131
Assign rand_sets[4]: 331  LLC: 2048
rand_sets[4]: 331
Assign rand_sets[5]: 1531  LLC: 2048
rand_sets[5]: 1531
Assign rand_sets[6]: 482  LLC: 2048
rand_sets[6]: 482
Assign rand_sets[7]: 1275  LLC: 2048
rand_sets[7]: 1275
Assign rand_sets[8]: 1876  LLC: 2048
rand_sets[8]: 1876
Assign rand_sets[9]: 2038  LLC: 2048
rand_sets[9]: 2038
Assign rand_sets[10]: 701  LLC: 2048
rand_sets[10]: 701
Assign rand_sets[11]: 479  LLC: 2048
rand_sets[11]: 479
Assign rand_sets[12]: 892  LLC: 2048
rand_sets[12]: 892
Assign rand_sets[13]: 1820  LLC: 2048
rand_sets[13]: 1820
Assign rand_sets[14]: 1505  LLC: 2048
rand_sets[14]: 1505
Assign rand_sets[15]: 1159  LLC: 2048
rand_sets[15]: 1159
Assign rand_sets[16]: 513  LLC: 2048
rand_sets[16]: 513
Assign rand_sets[17]: 703  LLC: 2048
rand_sets[17]: 703
Assign rand_sets[18]: 561  LLC: 2048
rand_sets[18]: 561
Assign rand_sets[19]: 990  LLC: 2048
rand_sets[19]: 990
Assign rand_sets[20]: 342  LLC: 2048
rand_sets[20]: 342
Assign rand_sets[21]: 882  LLC: 2048
rand_sets[21]: 882
Assign rand_sets[22]: 15  LLC: 2048
rand_sets[22]: 15
Assign rand_sets[23]: 71  LLC: 2048
rand_sets[23]: 71
Assign rand_sets[24]: 1127  LLC: 2048
rand_sets[24]: 1127
Assign rand_sets[25]: 1382  LLC: 2048
rand_sets[25]: 1382
Assign rand_sets[26]: 647  LLC: 2048
rand_sets[26]: 647
Assign rand_sets[27]: 857  LLC: 2048
rand_sets[27]: 857
Assign rand_sets[28]: 1450  LLC: 2048
rand_sets[28]: 1450
Assign rand_sets[29]: 1160  LLC: 2048
rand_sets[29]: 1160
Assign rand_sets[30]: 1852  LLC: 2048
rand_sets[30]: 1852
Assign rand_sets[31]: 1881  LLC: 2048
rand_sets[31]: 1881
Assign rand_sets[32]: 1770  LLC: 2048
rand_sets[32]: 1770
Assign rand_sets[33]: 1622  LLC: 2048
rand_sets[33]: 1622
Assign rand_sets[34]: 275  LLC: 2048
rand_sets[34]: 275
Assign rand_sets[35]: 635  LLC: 2048
rand_sets[35]: 635
Assign rand_sets[36]: 466  LLC: 2048
rand_sets[36]: 466
Assign rand_sets[37]: 1413  LLC: 2048
rand_sets[37]: 1413
Assign rand_sets[38]: 417  LLC: 2048
rand_sets[38]: 417
Assign rand_sets[39]: 472  LLC: 2048
rand_sets[39]: 472
Assign rand_sets[40]: 1340  LLC: 2048
rand_sets[40]: 1340
Assign rand_sets[41]: 852  LLC: 2048
rand_sets[41]: 852
Assign rand_sets[42]: 1365  LLC: 2048
rand_sets[42]: 1365
Assign rand_sets[43]: 47  LLC: 2048
rand_sets[43]: 47
Assign rand_sets[44]: 823  LLC: 2048
rand_sets[44]: 823
Assign rand_sets[45]: 686  LLC: 2048
rand_sets[45]: 686
Assign rand_sets[46]: 1637  LLC: 2048
rand_sets[46]: 1637
Assign rand_sets[47]: 1115  LLC: 2048
rand_sets[47]: 1115
Assign rand_sets[48]: 986  LLC: 2048
rand_sets[48]: 986
Assign rand_sets[49]: 258  LLC: 2048
rand_sets[49]: 258
Assign rand_sets[50]: 633  LLC: 2048
rand_sets[50]: 633
Assign rand_sets[51]: 920  LLC: 2048
rand_sets[51]: 920
Assign rand_sets[52]: 204  LLC: 2048
rand_sets[52]: 204
Assign rand_sets[53]: 227  LLC: 2048
rand_sets[53]: 227
Assign rand_sets[54]: 1818  LLC: 2048
rand_sets[54]: 1818
Assign rand_sets[55]: 886  LLC: 2048
rand_sets[55]: 886
Assign rand_sets[56]: 1422  LLC: 2048
rand_sets[56]: 1422
Assign rand_sets[57]: 607  LLC: 2048
rand_sets[57]: 607
Assign rand_sets[58]: 217  LLC: 2048
rand_sets[58]: 217
Assign rand_sets[59]: 1945  LLC: 2048
rand_sets[59]: 1945
Assign rand_sets[60]: 143  LLC: 2048
rand_sets[60]: 143
Assign rand_sets[61]: 1311  LLC: 2048
rand_sets[61]: 1311
Assign rand_sets[62]: 319  LLC: 2048
rand_sets[62]: 319
Assign rand_sets[63]: 1846  LLC: 2048
rand_sets[63]: 1846
Assign rand_sets[64]: 238  LLC: 2048
rand_sets[64]: 238
Assign rand_sets[65]: 67  LLC: 2048
rand_sets[65]: 67
Assign rand_sets[66]: 1912  LLC: 2048
rand_sets[66]: 1912
Assign rand_sets[67]: 1613  LLC: 2048
rand_sets[67]: 1613
Assign rand_sets[68]: 1293  LLC: 2048
rand_sets[68]: 1293
Assign rand_sets[69]: 1018  LLC: 2048
rand_sets[69]: 1018
Assign rand_sets[70]: 1982  LLC: 2048
rand_sets[70]: 1982
Assign rand_sets[71]: 1702  LLC: 2048
rand_sets[71]: 1702
Assign rand_sets[72]: 1498  LLC: 2048
rand_sets[72]: 1498
Assign rand_sets[73]: 228  LLC: 2048
rand_sets[73]: 228
Assign rand_sets[74]: 1414  LLC: 2048
rand_sets[74]: 1414
Assign rand_sets[75]: 1166  LLC: 2048
rand_sets[75]: 1166
Assign rand_sets[76]: 732  LLC: 2048
rand_sets[76]: 732
Assign rand_sets[77]: 297  LLC: 2048
rand_sets[77]: 297
Assign rand_sets[78]: 1133  LLC: 2048
rand_sets[78]: 1133
Assign rand_sets[79]: 846  LLC: 2048
rand_sets[79]: 846
Assign rand_sets[80]: 767  LLC: 2048
rand_sets[80]: 767
Assign rand_sets[81]: 1878  LLC: 2048
rand_sets[81]: 1878
Assign rand_sets[82]: 993  LLC: 2048
rand_sets[82]: 993
Assign rand_sets[83]: 1392  LLC: 2048
rand_sets[83]: 1392
Assign rand_sets[84]: 1568  LLC: 2048
rand_sets[84]: 1568
Assign rand_sets[85]: 1787  LLC: 2048
rand_sets[85]: 1787
Assign rand_sets[86]: 399  LLC: 2048
rand_sets[86]: 399
Assign rand_sets[87]: 1201  LLC: 2048
rand_sets[87]: 1201
Assign rand_sets[88]: 856  LLC: 2048
rand_sets[88]: 856
Assign rand_sets[89]: 773  LLC: 2048
rand_sets[89]: 773
Assign rand_sets[90]: 1680  LLC: 2048
rand_sets[90]: 1680
Assign rand_sets[91]: 1477  LLC: 2048
rand_sets[91]: 1477
Assign rand_sets[92]: 9  LLC: 2048
rand_sets[92]: 9
Assign rand_sets[93]: 1500  LLC: 2048
rand_sets[93]: 1500
Assign rand_sets[94]: 851  LLC: 2048
rand_sets[94]: 851
Assign rand_sets[95]: 973  LLC: 2048
rand_sets[95]: 973
Assign rand_sets[96]: 938  LLC: 2048
rand_sets[96]: 938
Assign rand_sets[97]: 1851  LLC: 2048
rand_sets[97]: 1851
Assign rand_sets[98]: 1608  LLC: 2048
rand_sets[98]: 1608
Assign rand_sets[99]: 1945  LLC: 2048
Assign rand_sets[99]: 1106  LLC: 2048
rand_sets[99]: 1106
Assign rand_sets[100]: 979  LLC: 2048
rand_sets[100]: 979
Assign rand_sets[101]: 338  LLC: 2048
rand_sets[101]: 338
Assign rand_sets[102]: 1693  LLC: 2048
rand_sets[102]: 1693
Assign rand_sets[103]: 6  LLC: 2048
rand_sets[103]: 6
Assign rand_sets[104]: 671  LLC: 2048
rand_sets[104]: 671
Assign rand_sets[105]: 490  LLC: 2048
rand_sets[105]: 490
Assign rand_sets[106]: 1461  LLC: 2048
rand_sets[106]: 1461
Assign rand_sets[107]: 1730  LLC: 2048
rand_sets[107]: 1730
Assign rand_sets[108]: 1030  LLC: 2048
rand_sets[108]: 1030
Assign rand_sets[109]: 19  LLC: 2048
rand_sets[109]: 19
Assign rand_sets[110]: 920  LLC: 2048
Assign rand_sets[110]: 329  LLC: 2048
rand_sets[110]: 329
Assign rand_sets[111]: 1714  LLC: 2048
rand_sets[111]: 1714
Assign rand_sets[112]: 1  LLC: 2048
rand_sets[112]: 1
Assign rand_sets[113]: 1822  LLC: 2048
rand_sets[113]: 1822
Assign rand_sets[114]: 172  LLC: 2048
rand_sets[114]: 172
Assign rand_sets[115]: 1586  LLC: 2048
rand_sets[115]: 1586
Assign rand_sets[116]: 648  LLC: 2048
rand_sets[116]: 648
Assign rand_sets[117]: 1329  LLC: 2048
rand_sets[117]: 1329
Assign rand_sets[118]: 668  LLC: 2048
rand_sets[118]: 668
Assign rand_sets[119]: 1874  LLC: 2048
rand_sets[119]: 1874
Assign rand_sets[120]: 70  LLC: 2048
rand_sets[120]: 70
Assign rand_sets[121]: 661  LLC: 2048
rand_sets[121]: 661
Assign rand_sets[122]: 1649  LLC: 2048
rand_sets[122]: 1649
Assign rand_sets[123]: 1590  LLC: 2048
rand_sets[123]: 1590
Assign rand_sets[124]: 911  LLC: 2048
rand_sets[124]: 911
Assign rand_sets[125]: 1367  LLC: 2048
rand_sets[125]: 1367
Assign rand_sets[126]: 1782  LLC: 2048
rand_sets[126]: 1782
Assign rand_sets[127]: 569  LLC: 2048
rand_sets[127]: 569
Assign rand_sets[128]: 1309  LLC: 2048
rand_sets[128]: 1309
Assign rand_sets[129]: 534  LLC: 2048
rand_sets[129]: 534
Assign rand_sets[130]: 1274  LLC: 2048
rand_sets[130]: 1274
Assign rand_sets[131]: 904  LLC: 2048
rand_sets[131]: 904
Assign rand_sets[132]: 1908  LLC: 2048
rand_sets[132]: 1908
Assign rand_sets[133]: 245  LLC: 2048
rand_sets[133]: 245
Assign rand_sets[134]: 1688  LLC: 2048
rand_sets[134]: 1688
Assign rand_sets[135]: 1660  LLC: 2048
rand_sets[135]: 1660
Assign rand_sets[136]: 1303  LLC: 2048
rand_sets[136]: 1303
Assign rand_sets[137]: 1628  LLC: 2048
rand_sets[137]: 1628
Assign rand_sets[138]: 1857  LLC: 2048
rand_sets[138]: 1857
Assign rand_sets[139]: 187  LLC: 2048
rand_sets[139]: 187
Assign rand_sets[140]: 1389  LLC: 2048
rand_sets[140]: 1389
Assign rand_sets[141]: 881  LLC: 2048
rand_sets[141]: 881
Assign rand_sets[142]: 1166  LLC: 2048
Assign rand_sets[142]: 1039  LLC: 2048
rand_sets[142]: 1039
Assign rand_sets[143]: 1136  LLC: 2048
rand_sets[143]: 1136
Assign rand_sets[144]: 601  LLC: 2048
rand_sets[144]: 601
Assign rand_sets[145]: 967  LLC: 2048
rand_sets[145]: 967
Assign rand_sets[146]: 769  LLC: 2048
rand_sets[146]: 769
Assign rand_sets[147]: 283  LLC: 2048
rand_sets[147]: 283
Assign rand_sets[148]: 559  LLC: 2048
rand_sets[148]: 559
Assign rand_sets[149]: 1075  LLC: 2048
rand_sets[149]: 1075
Assign rand_sets[150]: 829  LLC: 2048
rand_sets[150]: 829
Assign rand_sets[151]: 1681  LLC: 2048
rand_sets[151]: 1681
Assign rand_sets[152]: 1728  LLC: 2048
rand_sets[152]: 1728
Assign rand_sets[153]: 541  LLC: 2048
rand_sets[153]: 541
Assign rand_sets[154]: 421  LLC: 2048
rand_sets[154]: 421
Assign rand_sets[155]: 1037  LLC: 2048
rand_sets[155]: 1037
Assign rand_sets[156]: 13  LLC: 2048
rand_sets[156]: 13
Assign rand_sets[157]: 1707  LLC: 2048
rand_sets[157]: 1707
Assign rand_sets[158]: 1075  LLC: 2048
Assign rand_sets[158]: 1933  LLC: 2048
rand_sets[158]: 1933
Assign rand_sets[159]: 1406  LLC: 2048
rand_sets[159]: 1406
Assign rand_sets[160]: 94  LLC: 2048
rand_sets[160]: 94
Assign rand_sets[161]: 1423  LLC: 2048
rand_sets[161]: 1423
Assign rand_sets[162]: 1854  LLC: 2048
rand_sets[162]: 1854
Assign rand_sets[163]: 230  LLC: 2048
rand_sets[163]: 230
Assign rand_sets[164]: 104  LLC: 2048
rand_sets[164]: 104
Assign rand_sets[165]: 1652  LLC: 2048
rand_sets[165]: 1652
Assign rand_sets[166]: 1446  LLC: 2048
rand_sets[166]: 1446
Assign rand_sets[167]: 1338  LLC: 2048
rand_sets[167]: 1338
Assign rand_sets[168]: 177  LLC: 2048
rand_sets[168]: 177
Assign rand_sets[169]: 195  LLC: 2048
rand_sets[169]: 195
Assign rand_sets[170]: 1171  LLC: 2048
rand_sets[170]: 1171
Assign rand_sets[171]: 1297  LLC: 2048
rand_sets[171]: 1297
Assign rand_sets[172]: 1704  LLC: 2048
rand_sets[172]: 1704
Assign rand_sets[173]: 100  LLC: 2048
rand_sets[173]: 100
Assign rand_sets[174]: 711  LLC: 2048
rand_sets[174]: 711
Assign rand_sets[175]: 1243  LLC: 2048
rand_sets[175]: 1243
Assign rand_sets[176]: 1738  LLC: 2048
rand_sets[176]: 1738
Assign rand_sets[177]: 1504  LLC: 2048
rand_sets[177]: 1504
Assign rand_sets[178]: 96  LLC: 2048
rand_sets[178]: 96
Assign rand_sets[179]: 1249  LLC: 2048
rand_sets[179]: 1249
Assign rand_sets[180]: 1267  LLC: 2048
rand_sets[180]: 1267
Assign rand_sets[181]: 1727  LLC: 2048
rand_sets[181]: 1727
Assign rand_sets[182]: 1545  LLC: 2048
rand_sets[182]: 1545
Assign rand_sets[183]: 1792  LLC: 2048
rand_sets[183]: 1792
Assign rand_sets[184]: 1383  LLC: 2048
rand_sets[184]: 1383
Assign rand_sets[185]: 1954  LLC: 2048
rand_sets[185]: 1954
Assign rand_sets[186]: 739  LLC: 2048
rand_sets[186]: 739
Assign rand_sets[187]: 1061  LLC: 2048
rand_sets[187]: 1061
Assign rand_sets[188]: 672  LLC: 2048
rand_sets[188]: 672
Assign rand_sets[189]: 1057  LLC: 2048
rand_sets[189]: 1057
Assign rand_sets[190]: 1329  LLC: 2048
Assign rand_sets[190]: 1415  LLC: 2048
rand_sets[190]: 1415
Assign rand_sets[191]: 981  LLC: 2048
rand_sets[191]: 981
Assign rand_sets[192]: 98  LLC: 2048
rand_sets[192]: 98
Assign rand_sets[193]: 453  LLC: 2048
rand_sets[193]: 453
Assign rand_sets[194]: 1448  LLC: 2048
rand_sets[194]: 1448
Assign rand_sets[195]: 79  LLC: 2048
rand_sets[195]: 79
Assign rand_sets[196]: 126  LLC: 2048
rand_sets[196]: 126
Assign rand_sets[197]: 1582  LLC: 2048
rand_sets[197]: 1582
Assign rand_sets[198]: 1289  LLC: 2048
rand_sets[198]: 1289
Assign rand_sets[199]: 875  LLC: 2048
rand_sets[199]: 875
Assign rand_sets[200]: 404  LLC: 2048
rand_sets[200]: 404
Assign rand_sets[201]: 415  LLC: 2048
rand_sets[201]: 415
Assign rand_sets[202]: 1712  LLC: 2048
rand_sets[202]: 1712
Assign rand_sets[203]: 1389  LLC: 2048
Assign rand_sets[203]: 169  LLC: 2048
rand_sets[203]: 169
Assign rand_sets[204]: 158  LLC: 2048
rand_sets[204]: 158
Assign rand_sets[205]: 90  LLC: 2048
rand_sets[205]: 90
Assign rand_sets[206]: 1291  LLC: 2048
rand_sets[206]: 1291
Assign rand_sets[207]: 838  LLC: 2048
rand_sets[207]: 838
Assign rand_sets[208]: 1904  LLC: 2048
rand_sets[208]: 1904
Assign rand_sets[209]: 640  LLC: 2048
rand_sets[209]: 640
Assign rand_sets[210]: 1462  LLC: 2048
rand_sets[210]: 1462
Assign rand_sets[211]: 1487  LLC: 2048
rand_sets[211]: 1487
Assign rand_sets[212]: 1863  LLC: 2048
rand_sets[212]: 1863
Assign rand_sets[213]: 1036  LLC: 2048
rand_sets[213]: 1036
Assign rand_sets[214]: 1702  LLC: 2048
Assign rand_sets[214]: 933  LLC: 2048
rand_sets[214]: 933
Assign rand_sets[215]: 554  LLC: 2048
rand_sets[215]: 554
Assign rand_sets[216]: 1496  LLC: 2048
rand_sets[216]: 1496
Assign rand_sets[217]: 1708  LLC: 2048
rand_sets[217]: 1708
Assign rand_sets[218]: 1275  LLC: 2048
Assign rand_sets[218]: 416  LLC: 2048
rand_sets[218]: 416
Assign rand_sets[219]: 491  LLC: 2048
rand_sets[219]: 491
Assign rand_sets[220]: 183  LLC: 2048
rand_sets[220]: 183
Assign rand_sets[221]: 1657  LLC: 2048
rand_sets[221]: 1657
Assign rand_sets[222]: 1060  LLC: 2048
rand_sets[222]: 1060
Assign rand_sets[223]: 626  LLC: 2048
rand_sets[223]: 626
Assign rand_sets[224]: 1315  LLC: 2048
rand_sets[224]: 1315
Assign rand_sets[225]: 1682  LLC: 2048
rand_sets[225]: 1682
Assign rand_sets[226]: 1352  LLC: 2048
rand_sets[226]: 1352
Assign rand_sets[227]: 1152  LLC: 2048
rand_sets[227]: 1152
Assign rand_sets[228]: 965  LLC: 2048
rand_sets[228]: 965
Assign rand_sets[229]: 1190  LLC: 2048
rand_sets[229]: 1190
Assign rand_sets[230]: 1191  LLC: 2048
rand_sets[230]: 1191
Assign rand_sets[231]: 645  LLC: 2048
rand_sets[231]: 645
Assign rand_sets[232]: 695  LLC: 2048
rand_sets[232]: 695
Assign rand_sets[233]: 1495  LLC: 2048
rand_sets[233]: 1495
Assign rand_sets[234]: 1932  LLC: 2048
rand_sets[234]: 1932
Assign rand_sets[235]: 656  LLC: 2048
rand_sets[235]: 656
Assign rand_sets[236]: 1508  LLC: 2048
rand_sets[236]: 1508
Assign rand_sets[237]: 939  LLC: 2048
rand_sets[237]: 939
Assign rand_sets[238]: 355  LLC: 2048
rand_sets[238]: 355
Assign rand_sets[239]: 1092  LLC: 2048
rand_sets[239]: 1092
Assign rand_sets[240]: 850  LLC: 2048
rand_sets[240]: 850
Assign rand_sets[241]: 102  LLC: 2048
rand_sets[241]: 102
Assign rand_sets[242]: 1763  LLC: 2048
rand_sets[242]: 1763
Assign rand_sets[243]: 668  LLC: 2048
Assign rand_sets[243]: 51  LLC: 2048
rand_sets[243]: 51
Assign rand_sets[244]: 1317  LLC: 2048
rand_sets[244]: 1317
Assign rand_sets[245]: 2041  LLC: 2048
rand_sets[245]: 2041
Assign rand_sets[246]: 1374  LLC: 2048
rand_sets[246]: 1374
Assign rand_sets[247]: 682  LLC: 2048
rand_sets[247]: 682
Assign rand_sets[248]: 1466  LLC: 2048
rand_sets[248]: 1466
Assign rand_sets[249]: 1139  LLC: 2048
rand_sets[249]: 1139
Assign rand_sets[250]: 1632  LLC: 2048
rand_sets[250]: 1632
Assign rand_sets[251]: 1117  LLC: 2048
rand_sets[251]: 1117
Assign rand_sets[252]: 1611  LLC: 2048
rand_sets[252]: 1611
Assign rand_sets[253]: 1905  LLC: 2048
rand_sets[253]: 1905
Assign rand_sets[254]: 1662  LLC: 2048
Assign rand_sets[254]: 446  LLC: 2048
rand_sets[254]: 446
Assign rand_sets[255]: 1705  LLC: 2048
rand_sets[255]: 1705
Heartbeat CPU 0 instructions: 10000000 cycles: 3665346 heartbeat IPC: 2.72826 cumulative IPC: 2.72826 (Simulation time: 0 hr 1 min 53 sec) 
Heartbeat CPU 0 instructions: 20000003 cycles: 7329455 heartbeat IPC: 2.72918 cumulative IPC: 2.72872 (Simulation time: 0 hr 3 min 48 sec) 
Heartbeat CPU 0 instructions: 30000000 cycles: 10994037 heartbeat IPC: 2.72882 cumulative IPC: 2.72875 (Simulation time: 0 hr 5 min 53 sec) 
Heartbeat CPU 0 instructions: 40000003 cycles: 14657662 heartbeat IPC: 2.72954 cumulative IPC: 2.72895 (Simulation time: 0 hr 8 min 11 sec) 
Heartbeat CPU 0 instructions: 50000000 cycles: 18323785 heartbeat IPC: 2.72768 cumulative IPC: 2.72869 (Simulation time: 0 hr 10 min 3 sec) 

Warmup complete CPU 0 instructions: 50000004 cycles: 18323786 (Simulation time: 0 hr 10 min 3 sec) 

Heartbeat CPU 0 instructions: 60000000 cycles: 29411857 heartbeat IPC: 0.90187 cumulative IPC: 0.90187 (Simulation time: 0 hr 12 min 4 sec) 
Heartbeat CPU 0 instructions: 70000001 cycles: 40530424 heartbeat IPC: 0.899397 cumulative IPC: 0.900631 (Simulation time: 0 hr 13 min 46 sec) 
Heartbeat CPU 0 instructions: 80000001 cycles: 51630457 heartbeat IPC: 0.900898 cumulative IPC: 0.90072 (Simulation time: 0 hr 15 min 21 sec) 
Heartbeat CPU 0 instructions: 90000002 cycles: 62720245 heartbeat IPC: 0.901731 cumulative IPC: 0.900973 (Simulation time: 0 hr 16 min 48 sec) 
Heartbeat CPU 0 instructions: 100000000 cycles: 73834300 heartbeat IPC: 0.899761 cumulative IPC: 0.90073 (Simulation time: 0 hr 18 min 5 sec) 
Finished CPU 0 instructions: 50000000 cycles: 55510515 cumulative IPC: 0.90073 (Simulation time: 0 hr 18 min 5 sec) 

ChampSim completed all CPUs

Region of Interest Statistics

CPU 0 cumulative IPC: 0.90073 instructions: 50000000 cycles: 55510515
ITLB TOTAL     ACCESS:    6968537  HIT:    6968537  MISS:          0  HIT %:        100  MISS %:          0   MPKI: 0
ITLB LOAD TRANSLATION ACCESS:    6968537  HIT:    6968537  MISS:          0  HIT %:        100  MISS %:          0   MPKI: 0
ITLB PREFETCH  REQUESTED:          0  ISSUED:          0  USEFUL:          0  USELESS:          0
ITLB USEFUL LOAD PREFETCHES:          0 PREFETCH ISSUED TO LOWER LEVEL:          0  ACCURACY: -nan
ITLB TIMELY PREFETCHES:          0 LATE PREFETCHES: 0 DROPPED PREFETCHES: 0
ITLB PREFETCHES SAME FILL-ORIGIN LEVEL: 0 DIFFERENT FILL-ORIGIN LEVEL: 0
ITLB AVERAGE MISS LATENCY: -nan cycles
ITLB RQ	ACCESS:    8540355	FORWARD:          0	MERGED:    1571818	TO_CACHE:    6968537

DTLB TOTAL     ACCESS:   15034104  HIT:   13141515  MISS:    1892589  HIT %:    87.4114  MISS %:    12.5886   MPKI: 37.8518
DTLB LOAD TRANSLATION ACCESS:   15034104  HIT:   13141515  MISS:    1892589  HIT %:    87.4114  MISS %:    12.5886   MPKI: 37.8518
DTLB PREFETCH  REQUESTED:          0  ISSUED:          0  USEFUL:          0  USELESS:          0
DTLB USEFUL LOAD PREFETCHES:          0 PREFETCH ISSUED TO LOWER LEVEL:          0  ACCURACY: -nan
DTLB TIMELY PREFETCHES:          0 LATE PREFETCHES: 0 DROPPED PREFETCHES: 0
DTLB PREFETCHES SAME FILL-ORIGIN LEVEL: 0 DIFFERENT FILL-ORIGIN LEVEL: 0
DTLB AVERAGE MISS LATENCY: 10.3416 cycles
DTLB RQ	ACCESS:   19722180	FORWARD:          0	MERGED:    4493971	TO_CACHE:   15228209

STLB TOTAL     ACCESS:    8752372  HIT:    8750344  MISS:       2028  HIT %:    99.9768  MISS %:  0.0231709   MPKI: 0.04056
STLB LOAD TRANSLATION ACCESS:    1892589  HIT:    1890561  MISS:       2028  HIT %:    99.8928  MISS %:   0.107155   MPKI: 0.04056
STLB TRANSLATION FROM L1D PREFETCHER ACCESS:    6859783  HIT:    6859783  MISS:          0  HIT %:        100  MISS %:          0   MPKI: 0
STLB PREFETCH  REQUESTED:          0  ISSUED:          0  USEFUL:          0  USELESS:          0
STLB USEFUL LOAD PREFETCHES:          0 PREFETCH ISSUED TO LOWER LEVEL:          0  ACCURACY: -nan
STLB TIMELY PREFETCHES:          0 LATE PREFETCHES: 0 DROPPED PREFETCHES: 0
STLB PREFETCHES SAME FILL-ORIGIN LEVEL: 0 DIFFERENT FILL-ORIGIN LEVEL: 0
STLB AVERAGE MISS LATENCY: 758.342 cycles
STLB RQ	ACCESS:   12824712	FORWARD:          0	MERGED:    4072340	TO_CACHE:    8752372

STLB Hit, L1D data hit: 0
STLB Hit, L2C data hit: 0
STLB Hit, LLC data hit: 0
STLB Hit, LLC data miss: 0
STLB STLB hints to L2: 0
L1D TOTAL     ACCESS:   30345419  HIT:   25878710  MISS:    4466709  HIT %:    85.2805  MISS %:    14.7195   MPKI: 89.3342
L1D LOAD      ACCESS:   15664897  HIT:   12502973  MISS:    3161924  HIT %:    79.8152  MISS %:    20.1848   MPKI: 63.2385
L1D RFO       ACCESS:    3956466  HIT:    3658324  MISS:     298142  HIT %:    92.4644  MISS %:    7.53556   MPKI: 5.96284
L1D PREFETCH  ACCESS:   10724056  HIT:    9717413  MISS:    1006643  HIT %:    90.6132  MISS %:    9.38677   MPKI: 20.1329
AGUS PREFETCH L1 MISS: 0
L1D PREFETCH  REQUESTED:   22490014  ISSUED:   22490014  USEFUL:     428077  USELESS:     578591
L1D USEFUL LOAD PREFETCHES:     428077 PREFETCH ISSUED TO LOWER LEVEL:    1118448  ACCURACY: 38.2742
L1D TIMELY PREFETCHES:     428077 LATE PREFETCHES: 66314 DROPPED PREFETCHES: 0
L1D PREFETCHES SAME FILL-ORIGIN LEVEL: 1118448 DIFFERENT FILL-ORIGIN LEVEL: 0
L1D AVERAGE MISS LATENCY: 685450 cycles
L1D RQ	ACCESS:   19350418	FORWARD:          0	MERGED:    3591973	TO_CACHE:   15745351
L1D WQ	ACCESS:    4003942	FORWARD:      17452	MERGED:      27113	TO_CACHE:    3976829
L1D PQ	ACCESS:   11557891	FORWARD:          0	MERGED:     621410	TO_CACHE:   10932123

L1D UNIQUE REGIONS ACCESSED: 0
L1D REGIONS CONFLICTS: 0
L1D Cross Page Prefetch Requests: 0
L1D Same Page Prefetch Requests: 22151918
L1D ROI Sum of L1D PQ occupancy: 141628791
L1D PREFETCHES PUSHED FROM L2C: 0
L1I TOTAL     ACCESS:    7803931  HIT:    6357833  MISS:    1446098  HIT %:    81.4696  MISS %:    18.5304   MPKI: 28.922
L1I LOAD      ACCESS:    7803931  HIT:    6357833  MISS:    1446098  HIT %:    81.4696  MISS %:    18.5304   MPKI: 28.922
L1I PREFETCH  REQUESTED:          0  ISSUED:          0  USEFUL:          0  USELESS:          0
L1I USEFUL LOAD PREFETCHES:          0 PREFETCH ISSUED TO LOWER LEVEL:          0  ACCURACY: -nan
L1I TIMELY PREFETCHES:          0 LATE PREFETCHES: 0 DROPPED PREFETCHES: 0
L1I PREFETCHES SAME FILL-ORIGIN LEVEL: 0 DIFFERENT FILL-ORIGIN LEVEL: 0
L1I AVERAGE MISS LATENCY: 14.0665 cycles
L1I RQ	ACCESS:   11854887	FORWARD:          0	MERGED:    3314532	TO_CACHE:    8540355

BTB TOTAL     ACCESS:     280232  HIT:     262131  MISS:      18101  HIT %:    93.5407  MISS %:    6.45929   MPKI: 0.36202
BTB BRANCH_DIRECT_JUMP	ACCESS:      54228  HIT:      54223  MISS:          5
BTB BRANCH_INDIRECT	ACCESS:       9038  HIT:       9037  MISS:          1
BTB BRANCH_CONDITIONAL	ACCESS:     108510  HIT:     108499  MISS:         11
BTB BRANCH_DIRECT_CALL	ACCESS:      54228  HIT:      54223  MISS:          5
BTB BRANCH_INDIRECT_CALL	ACCESS:          0  HIT:          0  MISS:          0
BTB BRANCH_RETURN	ACCESS:      54228  HIT:      36149  MISS:      18079
BTB BRANCH_OTHER ACCESS:           0  HIT:          0  MISS:          0

L2C TOTAL     ACCESS:    8170017  HIT:    7839571  MISS:     330446  HIT %:    95.9554  MISS %:    4.04462   MPKI: 6.60892
L2C LOAD      ACCESS:    4541220  HIT:    4368099  MISS:     173121  HIT %:    96.1878  MISS %:    3.81221   MPKI: 3.46242
L2C DATA LOAD MPKI: 3.46158
L2C INSTRUCTION LOAD MPKI: 0.00084
L2C RFO       ACCESS:     297844  HIT:     268593  MISS:      29251  HIT %:    90.1791  MISS %:    9.82091   MPKI: 0.58502
L2C PREFETCH  ACCESS:    2989134  HIT:    2865127  MISS:     124007  HIT %:    95.8514  MISS %:    4.14859   MPKI: 2.48014
AGUS PREFETCH L1 MISS: 0
L2C DATA PREFETCH MPKI: 2.48014
L2C INSTRUCTION PREFETCH MPKI: 0
L2C WRITEBACK ACCESS:     338756  HIT:     337737  MISS:       1019  HIT %:    99.6992  MISS %:   0.300806   MPKI: 0.02038
L2C LOAD TRANSLATION ACCESS:       3063  HIT:         15  MISS:       3048  HIT %:   0.489716  MISS %:    99.5103   MPKI: 0.06096
L2C PREFETCH  REQUESTED:    2576717  ISSUED:    2538755  USEFUL:      78132  USELESS:      45909
L2C USEFUL LOAD PREFETCHES:      78132 PREFETCH ISSUED TO LOWER LEVEL:     442958  ACCURACY: 17.6387
L2C TIMELY PREFETCHES:      78132 LATE PREFETCHES: 1 DROPPED PREFETCHES: 0
L2C PREFETCHES SAME FILL-ORIGIN LEVEL: 11291 DIFFERENT FILL-ORIGIN LEVEL: 318949
L2C AVERAGE MISS LATENCY: 112.087 cycles
L2C RQ	ACCESS:    4842898	FORWARD:          0	MERGED:          0	TO_CACHE:    4842127
L2C WQ	ACCESS:     338756	FORWARD:       1051	MERGED:          0	TO_CACHE:     338756
L2C PQ	ACCESS:    3611727	FORWARD:          0	MERGED:     283138	TO_CACHE:    3328309

L2C Instructions Evicting Data 35
L2C Translations Evicting Data 3038
L2C Data Evicting Data 323237
L2C Instructions Evicting Instructions 7
L2C Translations Evicting Instructions 0
L2C Data Evicting Instructions 35
L2C Instructions Evicting Translations 0
L2C Translations Evicting Translations 10
L2C Data Evicting Translations 3065
L2C Dense regions hint from L2: 0
PSCL5 TOTAL     ACCESS:       2028  HIT:       2028  MISS:          0  HIT %:        100  MISS %:          0   MPKI: 0
PSCL5 LOAD TRANSLATION ACCESS:       2028  HIT:       2028  MISS:          0  HIT %:        100  MISS %:          0   MPKI: 0
PSCL5 PREFETCH  REQUESTED:          0  ISSUED:          0  USEFUL:          0  USELESS:          0
PSCL5 USEFUL LOAD PREFETCHES:          0 PREFETCH ISSUED TO LOWER LEVEL:          0  ACCURACY: -nan
PSCL5 TIMELY PREFETCHES:          0 LATE PREFETCHES: 0 DROPPED PREFETCHES: 0
PSCL5 PREFETCHES SAME FILL-ORIGIN LEVEL: 0 DIFFERENT FILL-ORIGIN LEVEL: 0

PSCL4 TOTAL     ACCESS:       2028  HIT:       2028  MISS:          0  HIT %:        100  MISS %:          0   MPKI: 0
PSCL4 LOAD TRANSLATION ACCESS:       2028  HIT:       2028  MISS:          0  HIT %:        100  MISS %:          0   MPKI: 0
PSCL4 PREFETCH  REQUESTED:          0  ISSUED:          0  USEFUL:          0  USELESS:          0
PSCL4 USEFUL LOAD PREFETCHES:          0 PREFETCH ISSUED TO LOWER LEVEL:          0  ACCURACY: -nan
PSCL4 TIMELY PREFETCHES:          0 LATE PREFETCHES: 0 DROPPED PREFETCHES: 0
PSCL4 PREFETCHES SAME FILL-ORIGIN LEVEL: 0 DIFFERENT FILL-ORIGIN LEVEL: 0

PSCL3 TOTAL     ACCESS:       2028  HIT:       2028  MISS:          0  HIT %:        100  MISS %:          0   MPKI: 0
PSCL3 LOAD TRANSLATION ACCESS:       2028  HIT:       2028  MISS:          0  HIT %:        100  MISS %:          0   MPKI: 0
PSCL3 PREFETCH  REQUESTED:          0  ISSUED:          0  USEFUL:          0  USELESS:          0
PSCL3 USEFUL LOAD PREFETCHES:          0 PREFETCH ISSUED TO LOWER LEVEL:          0  ACCURACY: -nan
PSCL3 TIMELY PREFETCHES:          0 LATE PREFETCHES: 0 DROPPED PREFETCHES: 0
PSCL3 PREFETCHES SAME FILL-ORIGIN LEVEL: 0 DIFFERENT FILL-ORIGIN LEVEL: 0

PSCL2 TOTAL     ACCESS:       2028  HIT:        989  MISS:       1039  HIT %:    48.7673  MISS %:    51.2327   MPKI: 0.02078
PSCL2 LOAD TRANSLATION ACCESS:       2028  HIT:        989  MISS:       1039  HIT %:    48.7673  MISS %:    51.2327   MPKI: 0.02078
PSCL2 PREFETCH  REQUESTED:          0  ISSUED:          0  USEFUL:          0  USELESS:          0
PSCL2 USEFUL LOAD PREFETCHES:          0 PREFETCH ISSUED TO LOWER LEVEL:          0  ACCURACY: -nan
PSCL2 TIMELY PREFETCHES:          0 LATE PREFETCHES: 0 DROPPED PREFETCHES: 0
PSCL2 PREFETCHES SAME FILL-ORIGIN LEVEL: 0 DIFFERENT FILL-ORIGIN LEVEL: 0

LLC TOTAL     ACCESS:     673626  HIT:     523155  MISS:     150471  HIT %:    77.6625  MISS %:    22.3375   MPKI: 3.00942
LLC LOAD      ACCESS:     173120  HIT:     156751  MISS:      16369  HIT %:    90.5447  MISS %:    9.45529   MPKI: 0.32738
LLC RFO       ACCESS:      29251  HIT:          1  MISS:      29250  HIT %: 0.00341869  MISS %:    99.9966   MPKI: 0.585
LLC PREFETCH  ACCESS:     438911  HIT:     352754  MISS:      86157  HIT %:    80.3703  MISS %:    19.6297   MPKI: 1.72314
AGUS PREFETCH L1 MISS: 0
LLC WRITEBACK ACCESS:      29296  HIT:      11248  MISS:      18048  HIT %:    38.3943  MISS %:    61.6057   MPKI: 0.36096
LLC LOAD TRANSLATION ACCESS:       3048  HIT:       2401  MISS:        647  HIT %:     78.773  MISS %:     21.227   MPKI: 0.01294
LLC PREFETCH  REQUESTED:          0  ISSUED:          0  USEFUL:      71235  USELESS:      17085
LLC USEFUL LOAD PREFETCHES:      71235 PREFETCH ISSUED TO LOWER LEVEL:      86477  ACCURACY: 82.3745
LLC TIMELY PREFETCHES:      71235 LATE PREFETCHES: 318 DROPPED PREFETCHES: 0
LLC PREFETCHES SAME FILL-ORIGIN LEVEL: 62690 DIFFERENT FILL-ORIGIN LEVEL: 0
LLC AVERAGE MISS LATENCY: 264.39 cycles
LLC RQ	ACCESS:     205419	FORWARD:          0	MERGED:          0	TO_CACHE:     205419
LLC WQ	ACCESS:      29296	FORWARD:          0	MERGED:          0	TO_CACHE:      29296
LLC PQ	ACCESS:     442958	FORWARD:          0	MERGED:       3448	TO_CACHE:     439510

LLC Dense regions hint to LLC: 0

RAW hits: 109313
Loads Generated: 19459731
Loads sent to L1D: 19350418
Stores Generated: 4004020
Stores sent to L1D: 4004023
Major fault: 0 Minor fault: 4562
Allocated PAGES: 4562
CPU 0 L1D berti prefetcher final stats
3-> Hits: 7313, Late: 10761, Early: 0, Misses: 0
6-> Hits: 1355, Late: 16719, Early: 0, Misses: 0
7-> Hits: 822, Late: 0, Early: 0, Misses: 0
8-> Hits: 27517, Late: 2422, Early: 0, Misses: 0
e-> Hits: 16745, Late: 0, Early: 0, Misses: 0
12-> Hits: 5455, Late: 0, Early: 0, Misses: 0
17-> Hits: 8393, Late: 0, Early: 0, Misses: 0
18-> Hits: 22231, Late: 0, Early: 0, Misses: 0
19-> Hits: 18074, Late: 0, Early: 0, Misses: 0
1a-> Hits: 4951, Late: 13123, Early: 0, Misses: 0
1d-> Hits: 10, Late: 0, Early: 0, Misses: 0
1e-> Hits: 7734, Late: 3475, Early: 0, Misses: 0
20-> Hits: 22520, Late: 0, Early: 0, Misses: 0
21-> Hits: 26852, Late: 0, Early: 0, Misses: 0
22-> Hits: 18074, Late: 0, Early: 0, Misses: 0
25-> Hits: 6360, Late: 2331, Early: 0, Misses: 0
26-> Hits: 2289, Late: 2120, Early: 0, Misses: 3095
28-> Hits: 18074, Late: 0, Early: 0, Misses: 0
2a-> Hits: 15025, Late: 0, Early: 0, Misses: 0
2b-> Hits: 11357, Late: 0, Early: 0, Misses: 0
30-> Hits: 1467, Late: 0, Early: 0, Misses: 0
31-> Hits: 514, Late: 0, Early: 0, Misses: 0
33-> Hits: 12418, Late: 0, Early: 0, Misses: 0
34-> Hits: 17766, Late: 0, Early: 0, Misses: 0
37-> Hits: 13183, Late: 2795, Early: 0, Misses: 0
38-> Hits: 1396, Late: 0, Early: 0, Misses: 0
3a-> Hits: 12492, Late: 1, Early: 0, Misses: 5581
3c-> Hits: 12795, Late: 2256, Early: 0, Misses: 0
3e-> Hits: 5272, Late: 0, Early: 0, Misses: 0
40-> Hits: 30973, Late: 0, Early: 0, Misses: 0
42-> Hits: 11420, Late: 2102, Early: 0, Misses: 0
43-> Hits: 1, Late: 1, Early: 0, Misses: 0
46-> Hits: 9733, Late: 1166, Early: 0, Misses: 0
47-> Hits: 17141, Late: 0, Early: 0, Misses: 0
48-> Hits: 5715, Late: 0, Early: 0, Misses: 0
49-> Hits: 18074, Late: 0, Early: 0, Misses: 0
4b-> Hits: 1483, Late: 0, Early: 0, Misses: 0
4c-> Hits: 485, Late: 17590, Early: 0, Misses: 0
4d-> Hits: 18074, Late: 0, Early: 0, Misses: 0
50-> Hits: 15965, Late: 0, Early: 0, Misses: 0
51-> Hits: 32195, Late: 0, Early: 0, Misses: 315
53-> Hits: 3142, Late: 14932, Early: 0, Misses: 0
58-> Hits: 36039, Late: 0, Early: 0, Misses: 0
59-> Hits: 8382, Late: 27766, Early: 0, Misses: 0
5a-> Hits: 18074, Late: 0, Early: 0, Misses: 0
5c-> Hits: 17976, Late: 0, Early: 0, Misses: 0
5d-> Hits: 5206, Late: 12868, Early: 0, Misses: 0
60-> Hits: 4394, Late: 1386, Early: 0, Misses: 0
62-> Hits: 34164, Late: 0, Early: 0, Misses: 0
66-> Hits: 1380, Late: 0, Early: 0, Misses: 2
67-> Hits: 25858, Late: 2160, Early: 0, Misses: 0
68-> Hits: 17145, Late: 0, Early: 0, Misses: 0
69-> Hits: 18074, Late: 0, Early: 0, Misses: 0
6b-> Hits: 7185, Late: 10889, Early: 0, Misses: 0
6c-> Hits: 12985, Late: 797, Early: 0, Misses: 0
6e-> Hits: 0, Late: 18071, Early: 0, Misses: 0
6f-> Hits: 18074, Late: 0, Early: 0, Misses: 0
70-> Hits: 11201, Late: 0, Early: 0, Misses: 0
72-> Hits: 36149, Late: 0, Early: 0, Misses: 0
73-> Hits: 18074, Late: 0, Early: 0, Misses: 0
75-> Hits: 9362, Late: 4109, Early: 0, Misses: 0
77-> Hits: 1259, Late: 16816, Early: 0, Misses: 0
78-> Hits: 36148, Late: 0, Early: 0, Misses: 0
7b-> Hits: 10841, Late: 0, Early: 0, Misses: 14
7c-> Hits: 1802, Late: 0, Early: 0, Misses: 0
7e-> Hits: 5501, Late: 0, Early: 0, Misses: 0
81-> Hits: 6737, Late: 11338, Early: 0, Misses: 0
82-> Hits: 33529, Late: 0, Early: 0, Misses: 0
83-> Hits: 21893, Late: 12978, Early: 0, Misses: 0
84-> Hits: 18074, Late: 0, Early: 0, Misses: 0
86-> Hits: 589, Late: 17485, Early: 0, Misses: 0
87-> Hits: 10011, Late: 0, Early: 0, Misses: 0
8a-> Hits: 19866, Late: 2280, Early: 0, Misses: 0
8b-> Hits: 11996, Late: 2813, Early: 0, Misses: 0
8c-> Hits: 27, Late: 0, Early: 0, Misses: 0
90-> Hits: 18074, Late: 0, Early: 0, Misses: 0
91-> Hits: 13709, Late: 1, Early: 0, Misses: 94
94-> Hits: 17871, Late: 0, Early: 0, Misses: 0
96-> Hits: 29919, Late: 1919, Early: 0, Misses: 0
9b-> Hits: 35827, Late: 0, Early: 0, Misses: 321
9e-> Hits: 6041, Late: 0, Early: 0, Misses: 0
a0-> Hits: 18074, Late: 0, Early: 0, Misses: 0
a1-> Hits: 22310, Late: 0, Early: 0, Misses: 0
a5-> Hits: 18074, Late: 0, Early: 0, Misses: 0
a6-> Hits: 6151, Late: 29998, Early: 0, Misses: 0
a9-> Hits: 30576, Late: 0, Early: 0, Misses: 121
aa-> Hits: 14828, Late: 0, Early: 0, Misses: 0
ab-> Hits: 15887, Late: 4906, Early: 0, Misses: 0
ac-> Hits: 17323, Late: 0, Early: 0, Misses: 0
b1-> Hits: 9230, Late: 20819, Early: 0, Misses: 0
b2-> Hits: 18074, Late: 0, Early: 0, Misses: 0
b5-> Hits: 14555, Late: 0, Early: 0, Misses: 0
b6-> Hits: 19246, Late: 0, Early: 0, Misses: 0
b7-> Hits: 10247, Late: 4547, Early: 0, Misses: 0
b9-> Hits: 14955, Late: 1276, Early: 0, Misses: 0
bb-> Hits: 6248, Late: 11826, Early: 0, Misses: 0
bc-> Hits: 5064, Late: 0, Early: 0, Misses: 0
bf-> Hits: 12503, Late: 5571, Early: 0, Misses: 0
c0-> Hits: 11719, Late: 2890, Early: 0, Misses: 0
c1-> Hits: 9372, Late: 0, Early: 0, Misses: 0
c6-> Hits: 18074, Late: 0, Early: 0, Misses: 0
c9-> Hits: 22320, Late: 13819, Early: 0, Misses: 10
ca-> Hits: 3097, Late: 0, Early: 0, Misses: 0
cb-> Hits: 17223, Late: 0, Early: 0, Misses: 0
ce-> Hits: 13567, Late: 916, Early: 0, Misses: 0
cf-> Hits: 15303, Late: 13488, Early: 0, Misses: 0
d1-> Hits: 18074, Late: 0, Early: 0, Misses: 0
d3-> Hits: 11777, Late: 2176, Early: 0, Misses: 0
d4-> Hits: 25104, Late: 3042, Early: 0, Misses: 0
d5-> Hits: 10271, Late: 0, Early: 0, Misses: 0
d9-> Hits: 17744, Late: 0, Early: 0, Misses: 0
da-> Hits: 25422, Late: 0, Early: 0, Misses: 23
df-> Hits: 13299, Late: 0, Early: 0, Misses: 0
e1-> Hits: 22500, Late: 13649, Early: 0, Misses: 0
e2-> Hits: 29964, Late: 2289, Early: 0, Misses: 0
e6-> Hits: 18074, Late: 0, Early: 0, Misses: 0
e7-> Hits: 31448, Late: 12546, Early: 0, Misses: 0
ec-> Hits: 34106, Late: 5922, Early: 0, Misses: 0
f0-> Hits: 1256, Late: 5, Early: 0, Misses: 0
f4-> Hits: 31215, Late: 4933, Early: 0, Misses: 0
f5-> Hits: 11365, Late: 693, Early: 0, Misses: 0
f7-> Hits: 18074, Late: 0, Early: 0, Misses: 0
f8-> Hits: 12272, Late: 0, Early: 0, Misses: 0
fa-> Hits: 17793, Late: 257, Early: 0, Misses: 24
fc-> Hits: 10986, Late: 0, Early: 0, Misses: 0
fd-> Hits: 29, Late: 0, Early: 0, Misses: 0
fe-> Hits: 21497, Late: 2577, Early: 0, Misses: 0
ff-> Hits: 16939, Late: 0, Early: 0, Misses: 1135
102-> Hits: 12903, Late: 1507, Early: 0, Misses: 0
105-> Hits: 26220, Late: 0, Early: 0, Misses: 0
107-> Hits: 19021, Late: 1664, Early: 0, Misses: 0
109-> Hits: 18074, Late: 0, Early: 0, Misses: 0
10a-> Hits: 17952, Late: 122, Early: 0, Misses: 0
10c-> Hits: 28, Late: 17859, Early: 0, Misses: 0
10d-> Hits: 9279, Late: 954, Early: 0, Misses: 0
10e-> Hits: 24898, Late: 0, Early: 0, Misses: 0
112-> Hits: 19216, Late: 0, Early: 0, Misses: 0
114-> Hits: 18074, Late: 0, Early: 0, Misses: 0
117-> Hits: 17069, Late: 963, Early: 0, Misses: 0
11a-> Hits: 3697, Late: 32451, Early: 0, Misses: 0
11b-> Hits: 18074, Late: 0, Early: 0, Misses: 0
11e-> Hits: 16352, Late: 1722, Early: 0, Misses: 0
11f-> Hits: 15887, Late: 0, Early: 0, Misses: 0
120-> Hits: 312, Late: 0, Early: 0, Misses: 0
124-> Hits: 24615, Late: 11534, Early: 0, Misses: 0
128-> Hits: 36148, Late: 0, Early: 0, Misses: 0
129-> Hits: 17282, Late: 0, Early: 0, Misses: 0
12b-> Hits: 17946, Late: 0, Early: 0, Misses: 0
12d-> Hits: 1226, Late: 0, Early: 0, Misses: 0
12f-> Hits: 17, Late: 18057, Early: 0, Misses: 0
132-> Hits: 7000, Late: 11075, Early: 0, Misses: 0
134-> Hits: 6486, Late: 2915, Early: 0, Misses: 0
136-> Hits: 19788, Late: 0, Early: 0, Misses: 0
137-> Hits: 7489, Late: 0, Early: 0, Misses: 0
13a-> Hits: 27845, Late: 0, Early: 0, Misses: 12
13c-> Hits: 7215, Late: 2083, Early: 0, Misses: 0
13d-> Hits: 335, Late: 17739, Early: 0, Misses: 0
13e-> Hits: 7116, Late: 0, Early: 0, Misses: 0
141-> Hits: 18074, Late: 0, Early: 0, Misses: 0
142-> Hits: 73, Late: 17121, Early: 0, Misses: 0
143-> Hits: 36122, Late: 0, Early: 0, Misses: 0
145-> Hits: 4782, Late: 13292, Early: 0, Misses: 0
147-> Hits: 20318, Late: 1791, Early: 0, Misses: 0
14a-> Hits: 9809, Late: 3748, Early: 0, Misses: 0
14c-> Hits: 13451, Late: 4623, Early: 0, Misses: 0
14e-> Hits: 18074, Late: 0, Early: 0, Misses: 0
150-> Hits: 467, Late: 2266, Early: 0, Misses: 0
152-> Hits: 18074, Late: 0, Early: 0, Misses: 0
156-> Hits: 2569, Late: 0, Early: 0, Misses: 0
157-> Hits: 14672, Late: 2200, Early: 0, Misses: 0
15a-> Hits: 18184, Late: 0, Early: 0, Misses: 0
15d-> Hits: 8368, Late: 0, Early: 0, Misses: 0
15f-> Hits: 18074, Late: 0, Early: 0, Misses: 0
160-> Hits: 18074, Late: 0, Early: 0, Misses: 0
163-> Hits: 18074, Late: 0, Early: 0, Misses: 0
165-> Hits: 5074, Late: 13000, Early: 0, Misses: 0
167-> Hits: 18074, Late: 0, Early: 0, Misses: 0
168-> Hits: 406, Late: 0, Early: 0, Misses: 0
169-> Hits: 10533, Late: 0, Early: 0, Misses: 6
16a-> Hits: 11027, Late: 2374, Early: 0, Misses: 0
16b-> Hits: 18074, Late: 0, Early: 0, Misses: 0
170-> Hits: 18074, Late: 0, Early: 0, Misses: 0
172-> Hits: 17273, Late: 0, Early: 0, Misses: 801
173-> Hits: 7185, Late: 2354, Early: 0, Misses: 0
175-> Hits: 24044, Late: 0, Early: 0, Misses: 0
178-> Hits: 42221, Late: 1349, Early: 0, Misses: 0
17a-> Hits: 5232, Late: 12842, Early: 0, Misses: 0
17b-> Hits: 18074, Late: 0, Early: 0, Misses: 0
17d-> Hits: 18074, Late: 0, Early: 0, Misses: 0
17e-> Hits: 382, Late: 0, Early: 0, Misses: 0
17f-> Hits: 24906, Late: 2991, Early: 0, Misses: 0
180-> Hits: 17415, Late: 0, Early: 0, Misses: 0
183-> Hits: 17662, Late: 0, Early: 0, Misses: 0
185-> Hits: 17483, Late: 0, Early: 0, Misses: 591
186-> Hits: 35875, Late: 0, Early: 0, Misses: 0
187-> Hits: 69, Late: 18005, Early: 0, Misses: 0
189-> Hits: 3244, Late: 0, Early: 0, Misses: 0
18d-> Hits: 36148, Late: 0, Early: 0, Misses: 0
18e-> Hits: 18778, Late: 13069, Early: 0, Misses: 0
18f-> Hits: 18074, Late: 0, Early: 0, Misses: 0
193-> Hits: 8961, Late: 2593, Early: 0, Misses: 0
194-> Hits: 12974, Late: 2227, Early: 0, Misses: 0
196-> Hits: 18212, Late: 0, Early: 0, Misses: 0
198-> Hits: 10431, Late: 0, Early: 0, Misses: 0
199-> Hits: 31647, Late: 4501, Early: 0, Misses: 0
19b-> Hits: 13260, Late: 2174, Early: 0, Misses: 0
19e-> Hits: 4856, Late: 13218, Early: 0, Misses: 0
19f-> Hits: 16734, Late: 0, Early: 0, Misses: 0
1a1-> Hits: 29167, Late: 0, Early: 0, Misses: 0
1a3-> Hits: 6887, Late: 3752, Early: 0, Misses: 0
1a5-> Hits: 17233, Late: 0, Early: 0, Misses: 0
1a7-> Hits: 548, Late: 0, Early: 0, Misses: 0
1a8-> Hits: 12592, Late: 5482, Early: 0, Misses: 0
1ab-> Hits: 178, Late: 0, Early: 0, Misses: 0
1b1-> Hits: 648, Late: 17407, Early: 0, Misses: 0
1b6-> Hits: 46819, Late: 77, Early: 0, Misses: 14
1b7-> Hits: 18074, Late: 0, Early: 0, Misses: 0
1b8-> Hits: 12870, Late: 270, Early: 0, Misses: 0
1b9-> Hits: 15797, Late: 0, Early: 0, Misses: 0
1bd-> Hits: 98, Late: 0, Early: 0, Misses: 0
1be-> Hits: 33047, Late: 0, Early: 0, Misses: 0
1c3-> Hits: 0, Late: 18024, Early: 0, Misses: 0
1c4-> Hits: 18074, Late: 0, Early: 0, Misses: 0
1c6-> Hits: 13703, Late: 2003, Early: 0, Misses: 0
1c8-> Hits: 10957, Late: 2261, Early: 0, Misses: 0
1ca-> Hits: 27124, Late: 100, Early: 0, Misses: 0
1cb-> Hits: 14204, Late: 2079, Early: 0, Misses: 0
1cc-> Hits: 17707, Late: 0, Early: 0, Misses: 0
1ce-> Hits: 18074, Late: 0, Early: 0, Misses: 0
1d0-> Hits: 101, Late: 17871, Early: 0, Misses: 0
1d3-> Hits: 15368, Late: 0, Early: 0, Misses: 0
1d7-> Hits: 303, Late: 0, Early: 0, Misses: 0
1da-> Hits: 16322, Late: 1666, Early: 0, Misses: 0
1db-> Hits: 18074, Late: 0, Early: 0, Misses: 0
1de-> Hits: 15937, Late: 0, Early: 0, Misses: 0
1e0-> Hits: 612, Late: 17462, Early: 0, Misses: 0
1e1-> Hits: 15837, Late: 2237, Early: 0, Misses: 0
1e4-> Hits: 14072, Late: 2282, Early: 0, Misses: 0
1e5-> Hits: 18074, Late: 0, Early: 0, Misses: 0
1e7-> Hits: 12918, Late: 0, Early: 0, Misses: 0
1e8-> Hits: 0, Late: 18074, Early: 0, Misses: 0
1ea-> Hits: 11466, Late: 0, Early: 0, Misses: 2
1ee-> Hits: 16, Late: 18058, Early: 0, Misses: 0
1f0-> Hits: 12612, Late: 5462, Early: 0, Misses: 0
1f1-> Hits: 18559, Late: 4844, Early: 0, Misses: 0
1f2-> Hits: 7076, Late: 3976, Early: 0, Misses: 0
1f6-> Hits: 15301, Late: 0, Early: 0, Misses: 0
1f7-> Hits: 13821, Late: 17719, Early: 0, Misses: 3
1fc-> Hits: 12022, Late: 2203, Early: 0, Misses: 0
1fe-> Hits: 13431, Late: 0, Early: 0, Misses: 0
1ff-> Hits: 134, Late: 0, Early: 0, Misses: 0
201-> Hits: 34635, Late: 5682, Early: 0, Misses: 0
203-> Hits: 18074, Late: 0, Early: 0, Misses: 0
204-> Hits: 53, Late: 18021, Early: 0, Misses: 0
205-> Hits: 18074, Late: 0, Early: 0, Misses: 0
207-> Hits: 25189, Late: 15, Early: 0, Misses: 1
209-> Hits: 4892, Late: 5603, Early: 0, Misses: 0
20a-> Hits: 18074, Late: 0, Early: 0, Misses: 0
20b-> Hits: 18074, Late: 0, Early: 0, Misses: 0
20f-> Hits: 9154, Late: 2459, Early: 0, Misses: 0
213-> Hits: 18082, Late: 0, Early: 0, Misses: 0
214-> Hits: 1672, Late: 378, Early: 0, Misses: 0
215-> Hits: 23671, Late: 2099, Early: 0, Misses: 0
21a-> Hits: 750, Late: 17324, Early: 0, Misses: 0
21c-> Hits: 14321, Late: 0, Early: 0, Misses: 0
21d-> Hits: 20216, Late: 2408, Early: 0, Misses: 2
21f-> Hits: 19120, Late: 2, Early: 0, Misses: 0
221-> Hits: 18074, Late: 0, Early: 0, Misses: 0
224-> Hits: 11621, Late: 0, Early: 0, Misses: 0
227-> Hits: 3416, Late: 14658, Early: 0, Misses: 0
229-> Hits: 9759, Late: 2080, Early: 0, Misses: 0
22a-> Hits: 7580, Late: 0, Early: 0, Misses: 0
22b-> Hits: 2136, Late: 17233, Early: 0, Misses: 0
22e-> Hits: 18704, Late: 0, Early: 0, Misses: 0
22f-> Hits: 10897, Late: 0, Early: 0, Misses: 0
230-> Hits: 17420, Late: 0, Early: 0, Misses: 706
234-> Hits: 18074, Late: 0, Early: 0, Misses: 0
235-> Hits: 249, Late: 4365, Early: 0, Misses: 0
239-> Hits: 903, Late: 0, Early: 0, Misses: 0
23a-> Hits: 18074, Late: 0, Early: 0, Misses: 0
23e-> Hits: 18061, Late: 60, Early: 0, Misses: 0
240-> Hits: 6037, Late: 0, Early: 0, Misses: 0
241-> Hits: 12931, Late: 0, Early: 0, Misses: 1
242-> Hits: 6870, Late: 2290, Early: 0, Misses: 0
243-> Hits: 1229, Late: 16893, Early: 0, Misses: 0
245-> Hits: 18074, Late: 0, Early: 0, Misses: 0
247-> Hits: 30516, Late: 961, Early: 0, Misses: 0
248-> Hits: 26049, Late: 5, Early: 0, Misses: 0
24a-> Hits: 13992, Late: 0, Early: 0, Misses: 0
24d-> Hits: 4974, Late: 13100, Early: 0, Misses: 0
24f-> Hits: 27670, Late: 53, Early: 0, Misses: 2
251-> Hits: 18074, Late: 0, Early: 0, Misses: 0
253-> Hits: 16029, Late: 0, Early: 0, Misses: 0
254-> Hits: 18074, Late: 0, Early: 0, Misses: 0
256-> Hits: 1652, Late: 16422, Early: 0, Misses: 0
257-> Hits: 18062, Late: 0, Early: 0, Misses: 12
258-> Hits: 2992, Late: 0, Early: 0, Misses: 0
25d-> Hits: 33916, Late: 0, Early: 0, Misses: 0
25f-> Hits: 13175, Late: 2571, Early: 0, Misses: 2
260-> Hits: 13837, Late: 0, Early: 0, Misses: 0
262-> Hits: 12034, Late: 1597, Early: 0, Misses: 0
264-> Hits: 679, Late: 17395, Early: 0, Misses: 0
265-> Hits: 1533, Late: 1, Early: 0, Misses: 0
266-> Hits: 18074, Late: 0, Early: 0, Misses: 0
267-> Hits: 11849, Late: 2210, Early: 0, Misses: 0
269-> Hits: 14972, Late: 2272, Early: 0, Misses: 0
26d-> Hits: 18056, Late: 0, Early: 0, Misses: 18
26e-> Hits: 16519, Late: 4509, Early: 0, Misses: 0
26f-> Hits: 13941, Late: 0, Early: 0, Misses: 5
270-> Hits: 17874, Late: 0, Early: 0, Misses: 0
273-> Hits: 18074, Late: 0, Early: 0, Misses: 0
274-> Hits: 18074, Late: 0, Early: 0, Misses: 0
277-> Hits: 29399, Late: 17065, Early: 0, Misses: 0
27b-> Hits: 18057, Late: 0, Early: 0, Misses: 17
27d-> Hits: 11309, Late: 2, Early: 0, Misses: 0
282-> Hits: 18074, Late: 0, Early: 0, Misses: 0
283-> Hits: 36115, Late: 0, Early: 0, Misses: 33
284-> Hits: 2461, Late: 15613, Early: 0, Misses: 0
285-> Hits: 10708, Late: 1426, Early: 0, Misses: 0
289-> Hits: 18074, Late: 0, Early: 0, Misses: 0
28b-> Hits: 1980, Late: 0, Early: 0, Misses: 0
28f-> Hits: 17185, Late: 0, Early: 0, Misses: 0
290-> Hits: 30188, Late: 3790, Early: 0, Misses: 0
291-> Hits: 18002, Late: 28, Early: 0, Misses: 15
292-> Hits: 14834, Late: 0, Early: 0, Misses: 0
296-> Hits: 14411, Late: 1523, Early: 0, Misses: 0
298-> Hits: 6042, Late: 12032, Early: 0, Misses: 0
29a-> Hits: 13901, Late: 0, Early: 0, Misses: 0
29c-> Hits: 13945, Late: 2282, Early: 0, Misses: 0
29e-> Hits: 5779, Late: 2413, Early: 0, Misses: 0
29f-> Hits: 17694, Late: 0, Early: 0, Misses: 17
2a4-> Hits: 23, Late: 0, Early: 0, Misses: 0
2a5-> Hits: 26913, Late: 0, Early: 0, Misses: 0
2ab-> Hits: 16488, Late: 1371, Early: 0, Misses: 0
2ac-> Hits: 26695, Late: 2325, Early: 0, Misses: 0
2ad-> Hits: 5056, Late: 13154, Early: 0, Misses: 2
2b2-> Hits: 49155, Late: 2071, Early: 0, Misses: 0
2b3-> Hits: 28423, Late: 0, Early: 0, Misses: 0
2b8-> Hits: 9861, Late: 2319, Early: 0, Misses: 0
2b9-> Hits: 1, Late: 18073, Early: 0, Misses: 0
2ba-> Hits: 8487, Late: 1971, Early: 0, Misses: 0
2bd-> Hits: 3967, Late: 7, Early: 0, Misses: 0
2be-> Hits: 17986, Late: 0, Early: 0, Misses: 18
2bf-> Hits: 17535, Late: 0, Early: 0, Misses: 0
2c4-> Hits: 4233, Late: 19114, Early: 0, Misses: 0
2c5-> Hits: 38234, Late: 15871, Early: 0, Misses: 117
2c8-> Hits: 52, Late: 0, Early: 0, Misses: 0
2c9-> Hits: 3855, Late: 14219, Early: 0, Misses: 0
2ca-> Hits: 16340, Late: 0, Early: 0, Misses: 0
2cb-> Hits: 13721, Late: 1, Early: 0, Misses: 0
2cd-> Hits: 18006, Late: 0, Early: 0, Misses: 123
2cf-> Hits: 9911, Late: 2426, Early: 0, Misses: 0
2d0-> Hits: 5422, Late: 12652, Early: 0, Misses: 0
2d2-> Hits: 14095, Late: 2482, Early: 0, Misses: 0
2d6-> Hits: 404, Late: 0, Early: 0, Misses: 0
2d7-> Hits: 29659, Late: 1722, Early: 0, Misses: 0
2da-> Hits: 16936, Late: 0, Early: 0, Misses: 0
2db-> Hits: 7185, Late: 11048, Early: 0, Misses: 2
2dd-> Hits: 18074, Late: 0, Early: 0, Misses: 0
2e0-> Hits: 2348, Late: 0, Early: 0, Misses: 0
2e2-> Hits: 1238, Late: 16836, Early: 0, Misses: 0
2e3-> Hits: 18074, Late: 0, Early: 0, Misses: 0
2e5-> Hits: 4985, Late: 2160, Early: 0, Misses: 0
2e6-> Hits: 8242, Late: 18025, Early: 0, Misses: 0
2e7-> Hits: 17972, Late: 0, Early: 0, Misses: 0
2ea-> Hits: 9742, Late: 3, Early: 0, Misses: 0
2eb-> Hits: 4876, Late: 5654, Early: 0, Misses: 0
2ec-> Hits: 4411, Late: 13663, Early: 0, Misses: 0
2ee-> Hits: 16152, Late: 0, Early: 0, Misses: 0
2ef-> Hits: 18074, Late: 0, Early: 0, Misses: 0
2f0-> Hits: 36, Late: 0, Early: 0, Misses: 0
2f2-> Hits: 5327, Late: 12747, Early: 0, Misses: 0
2f3-> Hits: 17775, Late: 0, Early: 0, Misses: 0
2f5-> Hits: 18042, Late: 0, Early: 0, Misses: 0
2f6-> Hits: 1847, Late: 351, Early: 0, Misses: 0
2f7-> Hits: 10082, Late: 3006, Early: 0, Misses: 0
2fd-> Hits: 1606, Late: 0, Early: 0, Misses: 0
2fe-> Hits: 9855, Late: 0, Early: 0, Misses: 0
301-> Hits: 24072, Late: 2592, Early: 0, Misses: 0
303-> Hits: 6473, Late: 0, Early: 0, Misses: 0
305-> Hits: 5863, Late: 12211, Early: 0, Misses: 0
308-> Hits: 526, Late: 17548, Early: 0, Misses: 0
30a-> Hits: 31339, Late: 2119, Early: 0, Misses: 0
30d-> Hits: 11933, Late: 2355, Early: 0, Misses: 0
311-> Hits: 8345, Late: 0, Early: 0, Misses: 0
313-> Hits: 9771, Late: 0, Early: 0, Misses: 0
316-> Hits: 5063, Late: 13012, Early: 0, Misses: 0
317-> Hits: 32042, Late: 0, Early: 0, Misses: 0
318-> Hits: 18074, Late: 0, Early: 0, Misses: 0
31b-> Hits: 9740, Late: 19463, Early: 0, Misses: 0
320-> Hits: 17262, Late: 0, Early: 0, Misses: 0
321-> Hits: 1530, Late: 0, Early: 0, Misses: 0
324-> Hits: 17225, Late: 0, Early: 0, Misses: 0
325-> Hits: 18074, Late: 0, Early: 0, Misses: 0
326-> Hits: 6230, Late: 11844, Early: 0, Misses: 0
328-> Hits: 7201, Late: 1835, Early: 0, Misses: 0
32b-> Hits: 5441, Late: 3260, Early: 0, Misses: 0
331-> Hits: 722, Late: 0, Early: 0, Misses: 0
332-> Hits: 12255, Late: 0, Early: 0, Misses: 0
337-> Hits: 232, Late: 0, Early: 0, Misses: 0
339-> Hits: 4321, Late: 13753, Early: 0, Misses: 0
33a-> Hits: 21138, Late: 13706, Early: 0, Misses: 0
33d-> Hits: 17774, Late: 0, Early: 0, Misses: 0
33e-> Hits: 8249, Late: 2350, Early: 0, Misses: 0
33f-> Hits: 3550, Late: 2797, Early: 0, Misses: 0
343-> Hits: 12477, Late: 1, Early: 0, Misses: 5596
344-> Hits: 13679, Late: 1, Early: 0, Misses: 0
345-> Hits: 172, Late: 0, Early: 0, Misses: 0
348-> Hits: 3636, Late: 14438, Early: 0, Misses: 0
34c-> Hits: 14237, Late: 3837, Early: 0, Misses: 0
34d-> Hits: 15383, Late: 0, Early: 0, Misses: 0
34f-> Hits: 17980, Late: 0, Early: 0, Misses: 0
350-> Hits: 10, Late: 0, Early: 0, Misses: 0
351-> Hits: 9138, Late: 0, Early: 0, Misses: 0
355-> Hits: 18073, Late: 0, Early: 0, Misses: 1
356-> Hits: 39274, Late: 2614, Early: 0, Misses: 0
358-> Hits: 18074, Late: 0, Early: 0, Misses: 0
35d-> Hits: 18074, Late: 0, Early: 0, Misses: 0
35f-> Hits: 18074, Late: 0, Early: 0, Misses: 0
367-> Hits: 18074, Late: 0, Early: 0, Misses: 0
368-> Hits: 18006, Late: 0, Early: 0, Misses: 0
369-> Hits: 13710, Late: 2807, Early: 0, Misses: 0
36c-> Hits: 8, Late: 0, Early: 0, Misses: 0
36f-> Hits: 18074, Late: 0, Early: 0, Misses: 0
370-> Hits: 6351, Late: 0, Early: 0, Misses: 0
371-> Hits: 233, Late: 0, Early: 0, Misses: 0
374-> Hits: 18074, Late: 0, Early: 0, Misses: 0
377-> Hits: 8, Late: 0, Early: 0, Misses: 0
378-> Hits: 10131, Late: 1258, Early: 0, Misses: 0
37a-> Hits: 898, Late: 0, Early: 0, Misses: 0
37b-> Hits: 17803, Late: 0, Early: 0, Misses: 0
37d-> Hits: 1062, Late: 0, Early: 0, Misses: 0
37f-> Hits: 9, Late: 0, Early: 0, Misses: 0
380-> Hits: 18074, Late: 0, Early: 0, Misses: 0
385-> Hits: 17393, Late: 15405, Early: 0, Misses: 0
387-> Hits: 8222, Late: 3579, Early: 0, Misses: 0
388-> Hits: 0, Late: 18074, Early: 0, Misses: 0
389-> Hits: 32984, Late: 0, Early: 0, Misses: 0
38a-> Hits: 14106, Late: 0, Early: 0, Misses: 0
38d-> Hits: 10, Late: 0, Early: 0, Misses: 0
38e-> Hits: 762, Late: 17322, Early: 0, Misses: 0
38f-> Hits: 5249, Late: 12825, Early: 0, Misses: 0
390-> Hits: 10, Late: 0, Early: 0, Misses: 0
391-> Hits: 8309, Late: 0, Early: 0, Misses: 0
392-> Hits: 10, Late: 0, Early: 0, Misses: 0
393-> Hits: 18074, Late: 0, Early: 0, Misses: 0
394-> Hits: 18084, Late: 0, Early: 0, Misses: 0
396-> Hits: 36158, Late: 0, Early: 0, Misses: 0
397-> Hits: 10, Late: 0, Early: 0, Misses: 0
398-> Hits: 999, Late: 0, Early: 0, Misses: 0
39d-> Hits: 7086, Late: 10988, Early: 0, Misses: 0
39f-> Hits: 18074, Late: 0, Early: 0, Misses: 0
3a2-> Hits: 9827, Late: 18053, Early: 0, Misses: 0
3a3-> Hits: 13446, Late: 2354, Early: 0, Misses: 0
3a5-> Hits: 17886, Late: 0, Early: 0, Misses: 0
3a6-> Hits: 1, Late: 0, Early: 0, Misses: 0
3a7-> Hits: 11133, Late: 19194, Early: 0, Misses: 0
3a9-> Hits: 16395, Late: 0, Early: 0, Misses: 0
3b0-> Hits: 1027, Late: 0, Early: 0, Misses: 0
3b1-> Hits: 19019, Late: 1961, Early: 0, Misses: 0
3b6-> Hits: 34008, Late: 0, Early: 0, Misses: 0
3b9-> Hits: 6449, Late: 12721, Early: 0, Misses: 0
3bb-> Hits: 809, Late: 17265, Early: 0, Misses: 0
3be-> Hits: 11164, Late: 2738, Early: 0, Misses: 0
3bf-> Hits: 30447, Late: 0, Early: 0, Misses: 0
3c0-> Hits: 21600, Late: 14386, Early: 0, Misses: 0
3c6-> Hits: 0, Late: 18074, Early: 0, Misses: 0
3c8-> Hits: 4090, Late: 13984, Early: 0, Misses: 0
3cc-> Hits: 5422, Late: 2522, Early: 0, Misses: 0
3d1-> Hits: 22940, Late: 0, Early: 0, Misses: 0
3d2-> Hits: 9590, Late: 0, Early: 0, Misses: 0
3d3-> Hits: 26136, Late: 0, Early: 0, Misses: 0
3d6-> Hits: 4517, Late: 2253, Early: 0, Misses: 0
3d8-> Hits: 15685, Late: 1835, Early: 0, Misses: 0
3d9-> Hits: 12365, Late: 12308, Early: 0, Misses: 0
3da-> Hits: 17956, Late: 0, Early: 0, Misses: 0
3db-> Hits: 30267, Late: 1075, Early: 0, Misses: 0
3dd-> Hits: 18074, Late: 0, Early: 0, Misses: 0
3df-> Hits: 7459, Late: 2416, Early: 0, Misses: 0
3e1-> Hits: 18074, Late: 0, Early: 0, Misses: 0
3e4-> Hits: 18074, Late: 0, Early: 0, Misses: 0
3e6-> Hits: 12827, Late: 16648, Early: 0, Misses: 0
3ea-> Hits: 8397, Late: 0, Early: 0, Misses: 0
3eb-> Hits: 3789, Late: 0, Early: 0, Misses: 0
3ec-> Hits: 20636, Late: 4060, Early: 0, Misses: 0
3ee-> Hits: 35556, Late: 0, Early: 0, Misses: 0
3ef-> Hits: 6035, Late: 12039, Early: 0, Misses: 0
3f0-> Hits: 5402, Late: 12672, Early: 0, Misses: 0
3f1-> Hits: 16695, Late: 1328, Early: 0, Misses: 0
3f4-> Hits: 10967, Late: 2736, Early: 0, Misses: 0
3f9-> Hits: 11223, Late: 0, Early: 0, Misses: 0
3fd-> Hits: 15054, Late: 0, Early: 0, Misses: 0
3fe-> Hits: 19461, Late: 0, Early: 0, Misses: 0
400-> Hits: 4282, Late: 13792, Early: 0, Misses: 0
403-> Hits: 6341, Late: 11733, Early: 0, Misses: 0
404-> Hits: 17393, Late: 0, Early: 0, Misses: 0
407-> Hits: 23648, Late: 0, Early: 0, Misses: 0
408-> Hits: 8685, Late: 3007, Early: 0, Misses: 0
40a-> Hits: 15806, Late: 0, Early: 0, Misses: 0
40c-> Hits: 14678, Late: 18767, Early: 0, Misses: 0
411-> Hits: 44577, Late: 4584, Early: 0, Misses: 0
413-> Hits: 14394, Late: 0, Early: 0, Misses: 0
417-> Hits: 7756, Late: 0, Early: 0, Misses: 0
418-> Hits: 36148, Late: 0, Early: 0, Misses: 0
41b-> Hits: 5278, Late: 12796, Early: 0, Misses: 0
41d-> Hits: 17193, Late: 0, Early: 0, Misses: 0
41f-> Hits: 1051, Late: 17023, Early: 0, Misses: 0
420-> Hits: 19540, Late: 5579, Early: 0, Misses: 0
421-> Hits: 18074, Late: 0, Early: 0, Misses: 0
423-> Hits: 0, Late: 1, Early: 0, Misses: 0
424-> Hits: 7286, Late: 0, Early: 0, Misses: 0
425-> Hits: 8760, Late: 0, Early: 0, Misses: 0
42a-> Hits: 0, Late: 1, Early: 0, Misses: 0
42c-> Hits: 7444, Late: 1870, Early: 0, Misses: 0
42e-> Hits: 26512, Late: 3693, Early: 0, Misses: 0
42f-> Hits: 27523, Late: 0, Early: 0, Misses: 0
432-> Hits: 18074, Late: 0, Early: 0, Misses: 0
433-> Hits: 18074, Late: 0, Early: 0, Misses: 0
435-> Hits: 9594, Late: 13710, Early: 0, Misses: 0
437-> Hits: 18074, Late: 0, Early: 0, Misses: 0
43a-> Hits: 11178, Late: 1375, Early: 0, Misses: 0
43b-> Hits: 11811, Late: 2583, Early: 0, Misses: 0
43c-> Hits: 16477, Late: 0, Early: 0, Misses: 0
43e-> Hits: 15905, Late: 0, Early: 0, Misses: 0
43f-> Hits: 18074, Late: 0, Early: 0, Misses: 0
440-> Hits: 18074, Late: 18047, Early: 0, Misses: 0
445-> Hits: 3975, Late: 14099, Early: 0, Misses: 0
446-> Hits: 18544, Late: 0, Early: 0, Misses: 0
447-> Hits: 14461, Late: 1420, Early: 0, Misses: 0
449-> Hits: 1768, Late: 0, Early: 0, Misses: 0
44b-> Hits: 9103, Late: 0, Early: 0, Misses: 0
44c-> Hits: 13947, Late: 2011, Early: 0, Misses: 0
44e-> Hits: 9, Late: 18055, Early: 0, Misses: 0
450-> Hits: 9580, Late: 2626, Early: 0, Misses: 0
452-> Hits: 18074, Late: 0, Early: 0, Misses: 0
453-> Hits: 16273, Late: 0, Early: 0, Misses: 0
456-> Hits: 8668, Late: 0, Early: 0, Misses: 0
457-> Hits: 10237, Late: 0, Early: 0, Misses: 0
45c-> Hits: 17611, Late: 369, Early: 0, Misses: 0
45e-> Hits: 16, Late: 17722, Early: 0, Misses: 336
460-> Hits: 15328, Late: 0, Early: 0, Misses: 0
462-> Hits: 12073, Late: 2853, Early: 0, Misses: 0
463-> Hits: 34209, Late: 1939, Early: 0, Misses: 0
469-> Hits: 11126, Late: 0, Early: 0, Misses: 0
46c-> Hits: 23, Late: 18051, Early: 0, Misses: 0
46e-> Hits: 18074, Late: 0, Early: 0, Misses: 0
471-> Hits: 8585, Late: 964, Early: 0, Misses: 0
476-> Hits: 1418, Late: 0, Early: 0, Misses: 0
477-> Hits: 15544, Late: 17691, Early: 0, Misses: 0
47a-> Hits: 23900, Late: 1879, Early: 0, Misses: 0
47e-> Hits: 3921, Late: 14153, Early: 0, Misses: 0
480-> Hits: 93, Late: 17981, Early: 0, Misses: 0
482-> Hits: 1239, Late: 4514, Early: 0, Misses: 34
483-> Hits: 31750, Late: 0, Early: 0, Misses: 0
485-> Hits: 3402, Late: 2346, Early: 0, Misses: 0
488-> Hits: 4997, Late: 13077, Early: 0, Misses: 0
48c-> Hits: 11482, Late: 0, Early: 0, Misses: 0
48f-> Hits: 11262, Late: 0, Early: 0, Misses: 0
491-> Hits: 3794, Late: 0, Early: 0, Misses: 0
493-> Hits: 18074, Late: 0, Early: 0, Misses: 0
496-> Hits: 7388, Late: 10686, Early: 0, Misses: 0
49b-> Hits: 9481, Late: 0, Early: 0, Misses: 0
49d-> Hits: 18074, Late: 0, Early: 0, Misses: 0
49e-> Hits: 6281, Late: 2567, Early: 0, Misses: 0
4a0-> Hits: 7822, Late: 1857, Early: 0, Misses: 0
4a5-> Hits: 32098, Late: 2166, Early: 0, Misses: 37
4a9-> Hits: 5685, Late: 0, Early: 0, Misses: 0
4aa-> Hits: 18074, Late: 0, Early: 0, Misses: 0
4ae-> Hits: 18074, Late: 0, Early: 0, Misses: 0
4af-> Hits: 15699, Late: 0, Early: 0, Misses: 0
4b1-> Hits: 23652, Late: 12496, Early: 0, Misses: 0
4b2-> Hits: 8522, Late: 0, Early: 0, Misses: 0
4b6-> Hits: 29003, Late: 6092, Early: 0, Misses: 15275
4b8-> Hits: 18074, Late: 0, Early: 0, Misses: 0
4be-> Hits: 5089, Late: 2672, Early: 0, Misses: 0
4bf-> Hits: 19102, Late: 1890, Early: 0, Misses: 1204
4c3-> Hits: 15415, Late: 1138, Early: 0, Misses: 0
4c5-> Hits: 16182, Late: 0, Early: 0, Misses: 0
4c8-> Hits: 17429, Late: 0, Early: 0, Misses: 0
4c9-> Hits: 5195, Late: 12879, Early: 0, Misses: 0
4cd-> Hits: 18074, Late: 0, Early: 0, Misses: 0
4ce-> Hits: 23766, Late: 2395, Early: 0, Misses: 0
4d0-> Hits: 18074, Late: 0, Early: 0, Misses: 0
4d2-> Hits: 661, Late: 17413, Early: 0, Misses: 0
4d7-> Hits: 18074, Late: 0, Early: 0, Misses: 0
4d9-> Hits: 22110, Late: 0, Early: 0, Misses: 0
4de-> Hits: 16324, Late: 14651, Early: 0, Misses: 0
4df-> Hits: 17757, Late: 0, Early: 0, Misses: 0
4e0-> Hits: 2092, Late: 1786, Early: 0, Misses: 661
4e3-> Hits: 24129, Late: 5148, Early: 0, Misses: 0
4e8-> Hits: 14519, Late: 0, Early: 0, Misses: 0
4ea-> Hits: 9195, Late: 0, Early: 0, Misses: 0
4eb-> Hits: 17876, Late: 0, Early: 0, Misses: 0
4ed-> Hits: 2944, Late: 0, Early: 0, Misses: 0
4ef-> Hits: 3031, Late: 2399, Early: 0, Misses: 1789
4f2-> Hits: 19839, Late: 13963, Early: 0, Misses: 0
4f7-> Hits: 24865, Late: 3017, Early: 0, Misses: 0
4f9-> Hits: 12377, Late: 0, Early: 0, Misses: 0
4fc-> Hits: 29887, Late: 0, Early: 0, Misses: 0
502-> Hits: 27623, Late: 0, Early: 0, Misses: 0
504-> Hits: 17913, Late: 0, Early: 0, Misses: 161
507-> Hits: 1392, Late: 16668, Early: 0, Misses: 0
509-> Hits: 36148, Late: 0, Early: 0, Misses: 0
50a-> Hits: 5213, Late: 12861, Early: 0, Misses: 0
50c-> Hits: 1, Late: 0, Early: 0, Misses: 0
50e-> Hits: 5191, Late: 0, Early: 0, Misses: 0
510-> Hits: 7813, Late: 3759, Early: 0, Misses: 0
511-> Hits: 12709, Late: 2695, Early: 0, Misses: 0
513-> Hits: 12650, Late: 807, Early: 0, Misses: 0
516-> Hits: 18074, Late: 0, Early: 0, Misses: 0
518-> Hits: 17670, Late: 0, Early: 0, Misses: 0
51c-> Hits: 17673, Late: 1, Early: 0, Misses: 400
51e-> Hits: 36148, Late: 0, Early: 0, Misses: 0
520-> Hits: 14152, Late: 1449, Early: 0, Misses: 0
523-> Hits: 17189, Late: 0, Early: 0, Misses: 0
525-> Hits: 14810, Late: 1917, Early: 0, Misses: 0
527-> Hits: 3, Late: 18071, Early: 0, Misses: 0
52c-> Hits: 18218, Late: 17930, Early: 0, Misses: 0
52d-> Hits: 15499, Late: 2256, Early: 0, Misses: 0
530-> Hits: 18004, Late: 0, Early: 0, Misses: 0
533-> Hits: 17226, Late: 0, Early: 0, Misses: 0
534-> Hits: 16320, Late: 1489, Early: 0, Misses: 0
536-> Hits: 59, Late: 18015, Early: 0, Misses: 0
539-> Hits: 18074, Late: 0, Early: 0, Misses: 0
53b-> Hits: 28772, Late: 4331, Early: 0, Misses: 0
53c-> Hits: 351, Late: 4455, Early: 0, Misses: 0
53e-> Hits: 17954, Late: 0, Early: 0, Misses: 120
540-> Hits: 17515, Late: 0, Early: 0, Misses: 0
542-> Hits: 0, Late: 18074, Early: 0, Misses: 0
545-> Hits: 5153, Late: 2234, Early: 0, Misses: 0
546-> Hits: 13852, Late: 0, Early: 0, Misses: 0
547-> Hits: 31153, Late: 4995, Early: 0, Misses: 0
54a-> Hits: 12961, Late: 19327, Early: 0, Misses: 0
54b-> Hits: 12749, Late: 0, Early: 0, Misses: 0
550-> Hits: 16118, Late: 4625, Early: 0, Misses: 0
551-> Hits: 1571, Late: 2345, Early: 0, Misses: 0
553-> Hits: 18074, Late: 0, Early: 0, Misses: 0
557-> Hits: 8085, Late: 1813, Early: 0, Misses: 0
558-> Hits: 35543, Late: 0, Early: 0, Misses: 0
55b-> Hits: 25, Late: 18049, Early: 0, Misses: 0
55c-> Hits: 10117, Late: 2457, Early: 0, Misses: 9
55d-> Hits: 17961, Late: 0, Early: 0, Misses: 0
55e-> Hits: 17830, Late: 244, Early: 0, Misses: 0
561-> Hits: 1312, Late: 2487, Early: 0, Misses: 0
562-> Hits: 458, Late: 17616, Early: 0, Misses: 0
565-> Hits: 13137, Late: 0, Early: 0, Misses: 0
567-> Hits: 18074, Late: 0, Early: 0, Misses: 0
568-> Hits: 34562, Late: 0, Early: 0, Misses: 0
56b-> Hits: 33570, Late: 0, Early: 0, Misses: 12
56e-> Hits: 51, Late: 18023, Early: 0, Misses: 0
570-> Hits: 21387, Late: 13499, Early: 0, Misses: 0
573-> Hits: 10850, Late: 19167, Early: 0, Misses: 0
57a-> Hits: 18074, Late: 0, Early: 0, Misses: 0
57b-> Hits: 0, Late: 18074, Early: 0, Misses: 0
57c-> Hits: 17292, Late: 0, Early: 0, Misses: 0
57e-> Hits: 18074, Late: 0, Early: 0, Misses: 0
581-> Hits: 3, Late: 0, Early: 0, Misses: 0
583-> Hits: 5651, Late: 17540, Early: 0, Misses: 0
585-> Hits: 487, Late: 4128, Early: 0, Misses: 0
588-> Hits: 3099, Late: 0, Early: 0, Misses: 0
58a-> Hits: 18074, Late: 18074, Early: 0, Misses: 0
58d-> Hits: 14096, Late: 14648, Early: 0, Misses: 2
591-> Hits: 18074, Late: 0, Early: 0, Misses: 0
597-> Hits: 17491, Late: 0, Early: 0, Misses: 0
598-> Hits: 409, Late: 2209, Early: 0, Misses: 0
59a-> Hits: 15698, Late: 0, Early: 0, Misses: 0
59e-> Hits: 0, Late: 18074, Early: 0, Misses: 0
59f-> Hits: 24606, Late: 0, Early: 0, Misses: 0
5a0-> Hits: 18074, Late: 0, Early: 0, Misses: 0
5a4-> Hits: 480, Late: 17594, Early: 0, Misses: 0
5a6-> Hits: 1265, Late: 0, Early: 0, Misses: 0
5a9-> Hits: 14369, Late: 4716, Early: 0, Misses: 0
5ac-> Hits: 17764, Late: 0, Early: 0, Misses: 0
5ae-> Hits: 0, Late: 18074, Early: 0, Misses: 0
5af-> Hits: 13535, Late: 0, Early: 0, Misses: 0
5b1-> Hits: 18074, Late: 0, Early: 0, Misses: 0
5b3-> Hits: 7638, Late: 0, Early: 0, Misses: 0
5b7-> Hits: 892, Late: 17182, Early: 0, Misses: 0
5b8-> Hits: 18074, Late: 18074, Early: 0, Misses: 0
5b9-> Hits: 17690, Late: 0, Early: 0, Misses: 0
5bc-> Hits: 8787, Late: 0, Early: 0, Misses: 0
5c0-> Hits: 825, Late: 17249, Early: 0, Misses: 0
5c1-> Hits: 2864, Late: 0, Early: 0, Misses: 0
5c3-> Hits: 18074, Late: 0, Early: 0, Misses: 0
5c4-> Hits: 31563, Late: 1723, Early: 0, Misses: 0
5ca-> Hits: 0, Late: 18074, Early: 0, Misses: 0
5cd-> Hits: 6440, Late: 0, Early: 0, Misses: 0
5cf-> Hits: 1412, Late: 16662, Early: 0, Misses: 0
5d0-> Hits: 35724, Late: 424, Early: 0, Misses: 0
5d1-> Hits: 18074, Late: 0, Early: 0, Misses: 0
5d3-> Hits: 18074, Late: 0, Early: 0, Misses: 0
5d5-> Hits: 15976, Late: 11967, Early: 0, Misses: 0
5d8-> Hits: 14200, Late: 0, Early: 0, Misses: 0
5da-> Hits: 28133, Late: 2349, Early: 0, Misses: 0
5dc-> Hits: 18074, Late: 0, Early: 0, Misses: 0
5de-> Hits: 0, Late: 18074, Early: 0, Misses: 0
5e2-> Hits: 18074, Late: 0, Early: 0, Misses: 0
5e4-> Hits: 4959, Late: 31189, Early: 0, Misses: 0
5e9-> Hits: 15663, Late: 0, Early: 0, Misses: 0
5ea-> Hits: 30213, Late: 0, Early: 0, Misses: 0
5ef-> Hits: 25341, Late: 20383, Early: 0, Misses: 0
5f0-> Hits: 18074, Late: 0, Early: 0, Misses: 0
5f1-> Hits: 17515, Late: 0, Early: 0, Misses: 0
5f4-> Hits: 204, Late: 17870, Early: 0, Misses: 0
5f6-> Hits: 28918, Late: 0, Early: 0, Misses: 0
5fe-> Hits: 18074, Late: 0, Early: 0, Misses: 0
5ff-> Hits: 35956, Late: 22, Early: 0, Misses: 170
601-> Hits: 9982, Late: 0, Early: 0, Misses: 0
602-> Hits: 16651, Late: 0, Early: 0, Misses: 0
607-> Hits: 0, Late: 18074, Early: 0, Misses: 0
609-> Hits: 3253, Late: 14821, Early: 0, Misses: 0
60b-> Hits: 17602, Late: 0, Early: 0, Misses: 0
60e-> Hits: 16827, Late: 0, Early: 0, Misses: 0
60f-> Hits: 91, Late: 17983, Early: 0, Misses: 0
611-> Hits: 17182, Late: 0, Early: 0, Misses: 0
613-> Hits: 5743, Late: 12331, Early: 0, Misses: 0
618-> Hits: 18074, Late: 0, Early: 0, Misses: 0
619-> Hits: 0, Late: 18074, Early: 0, Misses: 0
61c-> Hits: 18733, Late: 0, Early: 0, Misses: 0
61f-> Hits: 161, Late: 4451, Early: 0, Misses: 0
621-> Hits: 41879, Late: 10500, Early: 0, Misses: 0
623-> Hits: 10260, Late: 3366, Early: 0, Misses: 0
626-> Hits: 3849, Late: 0, Early: 0, Misses: 0
62a-> Hits: 18074, Late: 0, Early: 0, Misses: 0
62b-> Hits: 7010, Late: 1920, Early: 0, Misses: 0
62d-> Hits: 33161, Late: 18074, Early: 0, Misses: 0
630-> Hits: 8012, Late: 0, Early: 0, Misses: 0
631-> Hits: 1, Late: 0, Early: 0, Misses: 0
632-> Hits: 1, Late: 0, Early: 0, Misses: 0
633-> Hits: 353, Late: 2291, Early: 0, Misses: 0
634-> Hits: 4735, Late: 0, Early: 0, Misses: 0
635-> Hits: 1, Late: 0, Early: 0, Misses: 0
637-> Hits: 1, Late: 0, Early: 0, Misses: 0
639-> Hits: 1, Late: 0, Early: 0, Misses: 0
63a-> Hits: 18074, Late: 0, Early: 0, Misses: 0
63b-> Hits: 1, Late: 0, Early: 0, Misses: 0
63c-> Hits: 5351, Late: 12723, Early: 0, Misses: 0
63d-> Hits: 15165, Late: 0, Early: 0, Misses: 0
63e-> Hits: 0, Late: 18074, Early: 0, Misses: 0
640-> Hits: 30705, Late: 5443, Early: 0, Misses: 0
641-> Hits: 24833, Late: 5255, Early: 0, Misses: 0
642-> Hits: 1, Late: 0, Early: 0, Misses: 0
643-> Hits: 1, Late: 0, Early: 0, Misses: 0
644-> Hits: 493, Late: 2369, Early: 0, Misses: 0
645-> Hits: 1, Late: 0, Early: 0, Misses: 0
647-> Hits: 17542, Late: 0, Early: 0, Misses: 0
649-> Hits: 1, Late: 0, Early: 0, Misses: 0
64b-> Hits: 17773, Late: 0, Early: 0, Misses: 0
64d-> Hits: 18074, Late: 0, Early: 0, Misses: 0
64e-> Hits: 3670, Late: 0, Early: 0, Misses: 1
64f-> Hits: 47353, Late: 1431, Early: 0, Misses: 0
654-> Hits: 25277, Late: 0, Early: 0, Misses: 0
656-> Hits: 54, Late: 18020, Early: 0, Misses: 0
659-> Hits: 695, Late: 17379, Early: 0, Misses: 0
65b-> Hits: 0, Late: 18074, Early: 0, Misses: 0
65c-> Hits: 6396, Late: 11678, Early: 0, Misses: 0
65e-> Hits: 17190, Late: 0, Early: 0, Misses: 0
660-> Hits: 18074, Late: 0, Early: 0, Misses: 0
661-> Hits: 30217, Late: 2244, Early: 0, Misses: 0
665-> Hits: 108, Late: 4468, Early: 0, Misses: 0
666-> Hits: 4885, Late: 13189, Early: 0, Misses: 0
668-> Hits: 18074, Late: 0, Early: 0, Misses: 0
66a-> Hits: 0, Late: 18074, Early: 0, Misses: 0
66c-> Hits: 8030, Late: 0, Early: 0, Misses: 0
66f-> Hits: 17645, Late: 0, Early: 0, Misses: 0
671-> Hits: 25226, Late: 10922, Early: 0, Misses: 0
674-> Hits: 17047, Late: 1491, Early: 0, Misses: 0
676-> Hits: 13830, Late: 2594, Early: 0, Misses: 0
677-> Hits: 1183, Late: 0, Early: 0, Misses: 0
678-> Hits: 875, Late: 2587, Early: 0, Misses: 0
679-> Hits: 12581, Late: 1023, Early: 0, Misses: 0
67c-> Hits: 1965, Late: 0, Early: 0, Misses: 0
67e-> Hits: 17707, Late: 18074, Early: 0, Misses: 0
67f-> Hits: 18074, Late: 0, Early: 0, Misses: 0
681-> Hits: 25276, Late: 10872, Early: 0, Misses: 0
682-> Hits: 16530, Late: 0, Early: 0, Misses: 0
684-> Hits: 1187, Late: 16887, Early: 0, Misses: 0
685-> Hits: 1, Late: 0, Early: 0, Misses: 0
686-> Hits: 5590, Late: 2946, Early: 0, Misses: 0
689-> Hits: 1832, Late: 2673, Early: 0, Misses: 0
68b-> Hits: 14419, Late: 0, Early: 0, Misses: 0
68d-> Hits: 31880, Late: 0, Early: 0, Misses: 0
68e-> Hits: 5362, Late: 30786, Early: 0, Misses: 0
695-> Hits: 5400, Late: 12674, Early: 0, Misses: 0
696-> Hits: 12117, Late: 0, Early: 0, Misses: 0
697-> Hits: 15708, Late: 0, Early: 0, Misses: 2366
698-> Hits: 0, Late: 18074, Early: 0, Misses: 0
69a-> Hits: 6300, Late: 2655, Early: 0, Misses: 0
69c-> Hits: 18074, Late: 0, Early: 0, Misses: 0
69d-> Hits: 4, Late: 18070, Early: 0, Misses: 0
6a5-> Hits: 18074, Late: 0, Early: 0, Misses: 0
6a7-> Hits: 0, Late: 18074, Early: 0, Misses: 0
6a8-> Hits: 17390, Late: 0, Early: 0, Misses: 0
6aa-> Hits: 17655, Late: 0, Early: 0, Misses: 0
6ac-> Hits: 4, Late: 18070, Early: 0, Misses: 0
6b3-> Hits: 136, Late: 17938, Early: 0, Misses: 0
6b5-> Hits: 0, Late: 18074, Early: 0, Misses: 0
6b7-> Hits: 69672, Late: 235, Early: 0, Misses: 1575
6b8-> Hits: 13081, Late: 2628, Early: 0, Misses: 0
6ba-> Hits: 1, Late: 0, Early: 0, Misses: 0
6bb-> Hits: 722, Late: 17352, Early: 0, Misses: 0
6be-> Hits: 9052, Late: 0, Early: 0, Misses: 0
6c0-> Hits: 12474, Late: 5600, Early: 0, Misses: 0
6c3-> Hits: 17910, Late: 0, Early: 0, Misses: 0
6c4-> Hits: 1022, Late: 0, Early: 0, Misses: 0
6c5-> Hits: 0, Late: 18074, Early: 0, Misses: 0
6c6-> Hits: 1319, Late: 16755, Early: 0, Misses: 0
6ca-> Hits: 17171, Late: 0, Early: 0, Misses: 0
6cb-> Hits: 8647, Late: 20299, Early: 0, Misses: 15836
6cc-> Hits: 13475, Late: 0, Early: 0, Misses: 1
6cd-> Hits: 17707, Late: 0, Early: 0, Misses: 0
6d0-> Hits: 17674, Late: 0, Early: 0, Misses: 0
6d3-> Hits: 8111, Late: 1668, Early: 0, Misses: 0
6d5-> Hits: 17924, Late: 18074, Early: 0, Misses: 0
6d9-> Hits: 38, Late: 18036, Early: 0, Misses: 0
6da-> Hits: 18093, Late: 18055, Early: 0, Misses: 0
6dc-> Hits: 4370, Late: 13704, Early: 0, Misses: 0
6de-> Hits: 50662, Late: 0, Early: 0, Misses: 0
6df-> Hits: 18074, Late: 0, Early: 0, Misses: 0
6e1-> Hits: 11147, Late: 2368, Early: 0, Misses: 0
6e3-> Hits: 16084, Late: 0, Early: 0, Misses: 0
6e4-> Hits: 19234, Late: 16914, Early: 0, Misses: 0
6e8-> Hits: 18074, Late: 0, Early: 0, Misses: 0
6eb-> Hits: 4826, Late: 13248, Early: 0, Misses: 0
6ed-> Hits: 12876, Late: 261, Early: 0, Misses: 0
6ef-> Hits: 18726, Late: 2384, Early: 0, Misses: 2086
6f0-> Hits: 17932, Late: 0, Early: 0, Misses: 0
6f1-> Hits: 8895, Late: 3201, Early: 0, Misses: 0
6f5-> Hits: 33786, Late: 0, Early: 0, Misses: 0
6f8-> Hits: 18004, Late: 0, Early: 0, Misses: 0
6ff-> Hits: 16752, Late: 1056, Early: 0, Misses: 0
701-> Hits: 16007, Late: 0, Early: 0, Misses: 0
702-> Hits: 3082, Late: 0, Early: 0, Misses: 0
703-> Hits: 18074, Late: 0, Early: 0, Misses: 0
704-> Hits: 13016, Late: 2307, Early: 0, Misses: 0
708-> Hits: 36148, Late: 0, Early: 0, Misses: 0
70a-> Hits: 1389, Late: 2353, Early: 0, Misses: 0
70b-> Hits: 8272, Late: 0, Early: 0, Misses: 0
70d-> Hits: 17236, Late: 0, Early: 0, Misses: 0
711-> Hits: 13875, Late: 0, Early: 0, Misses: 0
713-> Hits: 9922, Late: 1057, Early: 0, Misses: 0
716-> Hits: 14630, Late: 1927, Early: 0, Misses: 0
718-> Hits: 1279, Late: 0, Early: 0, Misses: 0
71a-> Hits: 18074, Late: 0, Early: 0, Misses: 0
71b-> Hits: 18074, Late: 0, Early: 0, Misses: 0
71e-> Hits: 17387, Late: 687, Early: 0, Misses: 0
720-> Hits: 3746, Late: 14328, Early: 0, Misses: 0
725-> Hits: 32529, Late: 0, Early: 0, Misses: 0
727-> Hits: 21763, Late: 7409, Early: 0, Misses: 0
72a-> Hits: 6127, Late: 11947, Early: 0, Misses: 0
72c-> Hits: 15783, Late: 1220, Early: 0, Misses: 0
731-> Hits: 18062, Late: 0, Early: 0, Misses: 0
734-> Hits: 805, Late: 0, Early: 0, Misses: 0
736-> Hits: 18074, Late: 0, Early: 0, Misses: 0
738-> Hits: 17084, Late: 0, Early: 0, Misses: 0
739-> Hits: 7137, Late: 10937, Early: 0, Misses: 0
73b-> Hits: 4171, Late: 13903, Early: 0, Misses: 0
73c-> Hits: 6, Late: 0, Early: 0, Misses: 0
73d-> Hits: 16232, Late: 1842, Early: 0, Misses: 0
73e-> Hits: 8070, Late: 2874, Early: 0, Misses: 0
740-> Hits: 6, Late: 0, Early: 0, Misses: 0
742-> Hits: 22377, Late: 0, Early: 0, Misses: 0
743-> Hits: 3, Late: 0, Early: 0, Misses: 0
746-> Hits: 1104, Late: 22, Early: 0, Misses: 0
747-> Hits: 9653, Late: 1843, Early: 0, Misses: 0
748-> Hits: 6872, Late: 0, Early: 0, Misses: 0
74c-> Hits: 14460, Late: 2144, Early: 0, Misses: 0
74d-> Hits: 17449, Late: 0, Early: 0, Misses: 0
74f-> Hits: 15781, Late: 0, Early: 0, Misses: 0
750-> Hits: 5493, Late: 12581, Early: 0, Misses: 0
751-> Hits: 18074, Late: 0, Early: 0, Misses: 0
753-> Hits: 18074, Late: 0, Early: 0, Misses: 0
754-> Hits: 18074, Late: 0, Early: 0, Misses: 0
756-> Hits: 9015, Late: 3161, Early: 0, Misses: 0
75b-> Hits: 11985, Late: 2290, Early: 0, Misses: 0
75c-> Hits: 5355, Late: 23, Early: 0, Misses: 0
75e-> Hits: 7, Late: 0, Early: 0, Misses: 0
760-> Hits: 18070, Late: 0, Early: 0, Misses: 4
762-> Hits: 17551, Late: 0, Early: 0, Misses: 0
764-> Hits: 18074, Late: 0, Early: 0, Misses: 0
765-> Hits: 2995, Late: 108, Early: 0, Misses: 0
769-> Hits: 5168, Late: 12906, Early: 0, Misses: 0
76f-> Hits: 6077, Late: 2281, Early: 0, Misses: 0
770-> Hits: 6037, Late: 11930, Early: 0, Misses: 0
772-> Hits: 31203, Late: 0, Early: 0, Misses: 0
773-> Hits: 18074, Late: 0, Early: 0, Misses: 0
777-> Hits: 2238, Late: 0, Early: 0, Misses: 0
77a-> Hits: 8682, Late: 0, Early: 0, Misses: 0
77b-> Hits: 18074, Late: 0, Early: 0, Misses: 0
77c-> Hits: 30293, Late: 640, Early: 0, Misses: 0
77d-> Hits: 0, Late: 1, Early: 0, Misses: 0
77f-> Hits: 7783, Late: 10291, Early: 0, Misses: 0
781-> Hits: 18074, Late: 0, Early: 0, Misses: 0
783-> Hits: 4687, Late: 0, Early: 0, Misses: 0
785-> Hits: 11092, Late: 2931, Early: 0, Misses: 0
787-> Hits: 11154, Late: 0, Early: 0, Misses: 0
789-> Hits: 14539, Late: 1569, Early: 0, Misses: 0
78f-> Hits: 35460, Late: 2071, Early: 0, Misses: 0
790-> Hits: 17779, Late: 0, Early: 0, Misses: 295
791-> Hits: 15515, Late: 2559, Early: 0, Misses: 0
794-> Hits: 6535, Late: 11539, Early: 0, Misses: 0
798-> Hits: 18074, Late: 0, Early: 0, Misses: 0
799-> Hits: 5998, Late: 3482, Early: 0, Misses: 0
79c-> Hits: 14619, Late: 0, Early: 0, Misses: 0
79d-> Hits: 6622, Late: 0, Early: 0, Misses: 0
79e-> Hits: 16541, Late: 849, Early: 0, Misses: 0
7a3-> Hits: 30, Late: 1, Early: 0, Misses: 0
7a4-> Hits: 18074, Late: 0, Early: 0, Misses: 0
7a5-> Hits: 34259, Late: 1888, Early: 0, Misses: 0
7a6-> Hits: 17727, Late: 0, Early: 0, Misses: 0
7a7-> Hits: 1420, Late: 72, Early: 0, Misses: 0
7a8-> Hits: 33, Late: 0, Early: 0, Misses: 0
7a9-> Hits: 8506, Late: 0, Early: 0, Misses: 0
7ac-> Hits: 5538, Late: 30610, Early: 0, Misses: 0
7b2-> Hits: 6569, Late: 3396, Early: 0, Misses: 0
7b7-> Hits: 9995, Late: 41, Early: 0, Misses: 0
7ba-> Hits: 36237, Late: 1242, Early: 0, Misses: 0
7bd-> Hits: 23083, Late: 313, Early: 0, Misses: 0
7bf-> Hits: 18074, Late: 0, Early: 0, Misses: 0
7c4-> Hits: 14378, Late: 2021, Early: 0, Misses: 525
7c5-> Hits: 17945, Late: 0, Early: 0, Misses: 129
7cc-> Hits: 18074, Late: 0, Early: 0, Misses: 0
7cd-> Hits: 4496, Late: 0, Early: 0, Misses: 0
7d2-> Hits: 0, Late: 17901, Early: 0, Misses: 0
7d3-> Hits: 13310, Late: 4764, Early: 0, Misses: 0
7d5-> Hits: 17781, Late: 0, Early: 0, Misses: 0
7d8-> Hits: 0, Late: 18074, Early: 0, Misses: 0
7da-> Hits: 34375, Late: 0, Early: 0, Misses: 0
7db-> Hits: 59, Late: 18015, Early: 0, Misses: 0
7dc-> Hits: 18065, Late: 0, Early: 0, Misses: 9
7dd-> Hits: 17999, Late: 0, Early: 0, Misses: 0
7e0-> Hits: 8836, Late: 3233, Early: 0, Misses: 0
7e3-> Hits: 9, Late: 0, Early: 0, Misses: 0
7e7-> Hits: 18074, Late: 0, Early: 0, Misses: 0
7e8-> Hits: 18074, Late: 0, Early: 0, Misses: 0
7eb-> Hits: 3646, Late: 18322, Early: 0, Misses: 0
7ec-> Hits: 13338, Late: 0, Early: 0, Misses: 0
7f0-> Hits: 1, Late: 0, Early: 0, Misses: 0
7f1-> Hits: 18074, Late: 0, Early: 0, Misses: 0
7f2-> Hits: 18073, Late: 1, Early: 0, Misses: 0
7f4-> Hits: 18074, Late: 0, Early: 0, Misses: 0
7f5-> Hits: 6861, Late: 2294, Early: 0, Misses: 363
7f7-> Hits: 11366, Late: 0, Early: 0, Misses: 0
7f9-> Hits: 218, Late: 17856, Early: 0, Misses: 0
7fd-> Hits: 18074, Late: 0, Early: 0, Misses: 0
804-> Hits: 18074, Late: 0, Early: 0, Misses: 0
807-> Hits: 4560, Late: 0, Early: 0, Misses: 0
808-> Hits: 15163, Late: 2911, Early: 0, Misses: 0
80c-> Hits: 2793, Late: 3917, Early: 0, Misses: 0
80d-> Hits: 18074, Late: 0, Early: 0, Misses: 0
810-> Hits: 15230, Late: 0, Early: 0, Misses: 0
813-> Hits: 11161, Late: 0, Early: 0, Misses: 0
818-> Hits: 12128, Late: 1695, Early: 0, Misses: 0
81a-> Hits: 18074, Late: 0, Early: 0, Misses: 0
81c-> Hits: 17973, Late: 0, Early: 0, Misses: 0
81d-> Hits: 18074, Late: 0, Early: 0, Misses: 0
81e-> Hits: 13398, Late: 7, Early: 0, Misses: 0
822-> Hits: 17995, Late: 0, Early: 0, Misses: 1
829-> Hits: 23549, Late: 0, Early: 0, Misses: 0
82c-> Hits: 10129, Late: 0, Early: 0, Misses: 0
82f-> Hits: 18074, Late: 0, Early: 0, Misses: 0
831-> Hits: 6462, Late: 3020, Early: 0, Misses: 0
834-> Hits: 1587, Late: 48, Early: 0, Misses: 0
835-> Hits: 18074, Late: 0, Early: 0, Misses: 0
836-> Hits: 15096, Late: 1194, Early: 0, Misses: 0
838-> Hits: 36148, Late: 0, Early: 0, Misses: 0
839-> Hits: 18074, Late: 0, Early: 0, Misses: 0
841-> Hits: 20130, Late: 0, Early: 0, Misses: 0
84a-> Hits: 25132, Late: 17880, Early: 0, Misses: 0
84f-> Hits: 18074, Late: 0, Early: 0, Misses: 0
851-> Hits: 15252, Late: 1, Early: 0, Misses: 0
854-> Hits: 36, Late: 0, Early: 0, Misses: 0
856-> Hits: 11137, Late: 1897, Early: 0, Misses: 0
857-> Hits: 18074, Late: 0, Early: 0, Misses: 0
85b-> Hits: 13129, Late: 2150, Early: 0, Misses: 0
85f-> Hits: 16529, Late: 0, Early: 0, Misses: 0
860-> Hits: 15250, Late: 2824, Early: 0, Misses: 0
862-> Hits: 2397, Late: 1, Early: 0, Misses: 0
864-> Hits: 8947, Late: 0, Early: 0, Misses: 0
865-> Hits: 8953, Late: 0, Early: 0, Misses: 0
866-> Hits: 9039, Late: 0, Early: 0, Misses: 0
869-> Hits: 18074, Late: 0, Early: 0, Misses: 0
86a-> Hits: 13733, Late: 2293, Early: 0, Misses: 0
86c-> Hits: 16441, Late: 0, Early: 0, Misses: 0
86f-> Hits: 18074, Late: 1, Early: 0, Misses: 0
873-> Hits: 18074, Late: 0, Early: 0, Misses: 0
876-> Hits: 31792, Late: 3218, Early: 0, Misses: 0
877-> Hits: 18074, Late: 0, Early: 0, Misses: 0
87e-> Hits: 17161, Late: 0, Early: 0, Misses: 0
87f-> Hits: 19080, Late: 17061, Early: 0, Misses: 0
886-> Hits: 4840, Late: 0, Early: 0, Misses: 0
889-> Hits: 11758, Late: 2542, Early: 0, Misses: 0
88a-> Hits: 18074, Late: 0, Early: 0, Misses: 0
88b-> Hits: 11324, Late: 298, Early: 0, Misses: 0
88c-> Hits: 35888, Late: 0, Early: 0, Misses: 0
88d-> Hits: 17091, Late: 0, Early: 0, Misses: 0
88f-> Hits: 7, Late: 0, Early: 0, Misses: 0
890-> Hits: 17790, Late: 1, Early: 0, Misses: 0
891-> Hits: 26373, Late: 330, Early: 0, Misses: 0
898-> Hits: 31683, Late: 1342, Early: 0, Misses: 0
89c-> Hits: 18074, Late: 0, Early: 0, Misses: 0
89d-> Hits: 13961, Late: 1793, Early: 0, Misses: 0
89e-> Hits: 18074, Late: 0, Early: 0, Misses: 0
8a2-> Hits: 6762, Late: 127, Early: 0, Misses: 0
8a5-> Hits: 15454, Late: 2308, Early: 0, Misses: 0
8ab-> Hits: 14632, Late: 2177, Early: 0, Misses: 0
8ac-> Hits: 16297, Late: 1681, Early: 0, Misses: 0
8b0-> Hits: 18231, Late: 0, Early: 0, Misses: 0
8b1-> Hits: 12352, Late: 0, Early: 0, Misses: 0
8b3-> Hits: 15892, Late: 2183, Early: 0, Misses: 0
8b5-> Hits: 3358, Late: 2165, Early: 0, Misses: 0
8b8-> Hits: 8169, Late: 0, Early: 0, Misses: 0
8ba-> Hits: 13985, Late: 15871, Early: 0, Misses: 0
8c0-> Hits: 212, Late: 17862, Early: 0, Misses: 0
8c2-> Hits: 36148, Late: 0, Early: 0, Misses: 0
8c3-> Hits: 18074, Late: 0, Early: 0, Misses: 0
8c4-> Hits: 2328, Late: 1948, Early: 0, Misses: 0
8c5-> Hits: 18074, Late: 0, Early: 0, Misses: 0
8c9-> Hits: 16613, Late: 0, Early: 0, Misses: 0
8ca-> Hits: 18074, Late: 0, Early: 0, Misses: 0
8cd-> Hits: 5, Late: 1, Early: 0, Misses: 0
8ce-> Hits: 7400, Late: 127, Early: 0, Misses: 0
8d1-> Hits: 1144, Late: 16930, Early: 0, Misses: 0
8d5-> Hits: 17606, Late: 0, Early: 0, Misses: 0
8d6-> Hits: 18496, Late: 17653, Early: 0, Misses: 0
8d7-> Hits: 17876, Late: 0, Early: 0, Misses: 0
8da-> Hits: 18074, Late: 0, Early: 0, Misses: 0
8db-> Hits: 21564, Late: 5362, Early: 0, Misses: 0
8df-> Hits: 18074, Late: 0, Early: 0, Misses: 0
8e3-> Hits: 30664, Late: 5484, Early: 0, Misses: 0
8e4-> Hits: 36592, Late: 15944, Early: 0, Misses: 0
8e6-> Hits: 2621, Late: 326, Early: 0, Misses: 0
8e9-> Hits: 7827, Late: 0, Early: 0, Misses: 0
8eb-> Hits: 30706, Late: 5442, Early: 0, Misses: 0
8ed-> Hits: 18074, Late: 0, Early: 0, Misses: 0
8ee-> Hits: 6521, Late: 11553, Early: 0, Misses: 0
8f1-> Hits: 17314, Late: 0, Early: 0, Misses: 0
8f5-> Hits: 17175, Late: 0, Early: 0, Misses: 0
8f7-> Hits: 31402, Late: 4746, Early: 0, Misses: 0
8fa-> Hits: 20704, Late: 71, Early: 0, Misses: 0
8fd-> Hits: 2621, Late: 15454, Early: 0, Misses: 0
900-> Hits: 18074, Late: 0, Early: 0, Misses: 0
902-> Hits: 18074, Late: 0, Early: 0, Misses: 0
905-> Hits: 516, Late: 17558, Early: 0, Misses: 0
[...]
cbd-> Hits: 17469, Late: 0, Early: 0, Misses: 0
cc1-> Hits: 15336, Late: 0, Early: 0, Misses: 0
cc2-> Hits: 128, Late: 14300, Early: 0, Misses: 3646
cc6-> Hits: 23201, Late: 12948, Early: 0, Misses: 0
cc7-> Hits: 18074, Late: 0, Early: 0, Misses: 0
cc9-> Hits: 3452, Late: 0, Early: 0, Misses: 0
ccb-> Hits: 2, Late: 0, Early: 0, Misses: 0
ccf-> Hits: 1362, Late: 0, Early: 0, Misses: 0
cd1-> Hits: 31136, Late: 0, Early: 0, Misses: 233
cd3-> Hits: 18074, Late: 0, Early: 0, Misses: 0
cd4-> Hits: 24896, Late: 11252, Early: 0, Misses: 0
cd8-> Hits: 9110, Late: 3909, Early: 0, Misses: 0
cd9-> Hits: 8839, Late: 18074, Early: 0, Misses: 0
cdc-> Hits: 13490, Late: 0, Early: 0, Misses: 0
cdd-> Hits: 12041, Late: 0, Early: 0, Misses: 0
cde-> Hits: 8633, Late: 1995, Early: 0, Misses: 0
ce5-> Hits: 13229, Late: 0, Early: 0, Misses: 0
ce6-> Hits: 3, Late: 0, Early: 0, Misses: 0
ce7-> Hits: 7377, Late: 0, Early: 0, Misses: 0
cea-> Hits: 18074, Late: 0, Early: 0, Misses: 0
ceb-> Hits: 19, Late: 0, Early: 0, Misses: 0
cec-> Hits: 14450, Late: 0, Early: 0, Misses: 0
cef-> Hits: 5292, Late: 12782, Early: 0, Misses: 0
cf1-> Hits: 12090, Late: 0, Early: 0, Misses: 0
cf4-> Hits: 20774, Late: 6114, Early: 0, Misses: 0
cf7-> Hits: 884, Late: 0, Early: 0, Misses: 11
cfa-> Hits: 17359, Late: 0, Early: 0, Misses: 0
cff-> Hits: 36848, Late: 5318, Early: 0, Misses: 12056
d01-> Hits: 1, Late: 0, Early: 0, Misses: 0
d02-> Hits: 12176, Late: 2001, Early: 0, Misses: 0
d05-> Hits: 1415, Late: 0, Early: 0, Misses: 0
d07-> Hits: 22126, Late: 0, Early: 0, Misses: 0
d08-> Hits: 17593, Late: 0, Early: 0, Misses: 0
d09-> Hits: 3, Late: 0, Early: 0, Misses: 0
d0c-> Hits: 1244, Late: 16831, Early: 0, Misses: 0
d0e-> Hits: 15611, Late: 0, Early: 0, Misses: 94
d0f-> Hits: 5945, Late: 12129, Early: 0, Misses: 0
d10-> Hits: 106, Late: 0, Early: 0, Misses: 0
d11-> Hits: 28850, Late: 0, Early: 0, Misses: 0
d14-> Hits: 27497, Late: 2273, Early: 0, Misses: 0
d15-> Hits: 7189, Late: 0, Early: 0, Misses: 0
d16-> Hits: 48, Late: 2055, Early: 0, Misses: 15971
d19-> Hits: 3821, Late: 14382, Early: 0, Misses: 0
d1e-> Hits: 34135, Late: 0, Early: 0, Misses: 0
d1f-> Hits: 8021, Late: 0, Early: 0, Misses: 0
d22-> Hits: 17260, Late: 0, Early: 0, Misses: 0
d24-> Hits: 5810, Late: 12264, Early: 0, Misses: 0
d27-> Hits: 4733, Late: 2210, Early: 0, Misses: 0
d29-> Hits: 27661, Late: 2628, Early: 0, Misses: 246
d2b-> Hits: 17668, Late: 0, Early: 0, Misses: 0
d2c-> Hits: 11216, Late: 992, Early: 0, Misses: 0
d2d-> Hits: 18074, Late: 0, Early: 0, Misses: 0
d2f-> Hits: 17364, Late: 0, Early: 0, Misses: 0
d30-> Hits: 12618, Late: 0, Early: 0, Misses: 0
d31-> Hits: 55, Late: 515, Early: 0, Misses: 17504
d32-> Hits: 18075, Late: 0, Early: 0, Misses: 0
d33-> Hits: 1067, Late: 0, Early: 0, Misses: 0
d34-> Hits: 18074, Late: 0, Early: 0, Misses: 0
d37-> Hits: 19381, Late: 16768, Early: 0, Misses: 0
d38-> Hits: 7612, Late: 10462, Early: 0, Misses: 0
d3c-> Hits: 1929, Late: 0, Early: 0, Misses: 0
d3d-> Hits: 7553, Late: 2611, Early: 0, Misses: 0
d40-> Hits: 18074, Late: 0, Early: 0, Misses: 0
d41-> Hits: 22505, Late: 12441, Early: 0, Misses: 0
d43-> Hits: 12281, Late: 0, Early: 0, Misses: 1
d48-> Hits: 12118, Late: 0, Early: 0, Misses: 0
d49-> Hits: 18075, Late: 0, Early: 0, Misses: 0
d4a-> Hits: 18074, Late: 1, Early: 0, Misses: 0
d4b-> Hits: 126, Late: 146, Early: 0, Misses: 17802
d4d-> Hits: 13099, Late: 0, Early: 0, Misses: 0
d50-> Hits: 5322, Late: 12755, Early: 0, Misses: 0
d52-> Hits: 8593, Late: 0, Early: 0, Misses: 0
d53-> Hits: 18074, Late: 0, Early: 0, Misses: 0
d55-> Hits: 5274, Late: 3421, Early: 0, Misses: 0
d56-> Hits: 15862, Late: 0, Early: 0, Misses: 0
d5c-> Hits: 18069, Late: 0, Early: 0, Misses: 0
d5e-> Hits: 725, Late: 0, Early: 0, Misses: 0
d63-> Hits: 18769, Late: 0, Early: 0, Misses: 0
d64-> Hits: 23698, Late: 0, Early: 0, Misses: 238
d65-> Hits: 12119, Late: 0, Early: 0, Misses: 0
d68-> Hits: 17729, Late: 0, Early: 0, Misses: 345
d69-> Hits: 389, Late: 17686, Early: 0, Misses: 0
d6c-> Hits: 18126, Late: 0, Early: 0, Misses: 0
d6d-> Hits: 18074, Late: 0, Early: 0, Misses: 0
d6e-> Hits: 11901, Late: 2456, Early: 0, Misses: 0
d6f-> Hits: 238, Late: 0, Early: 0, Misses: 2
d70-> Hits: 10037, Late: 18074, Early: 0, Misses: 0
d74-> Hits: 7222, Late: 0, Early: 0, Misses: 0
d76-> Hits: 18937, Late: 0, Early: 0, Misses: 0
d79-> Hits: 18074, Late: 0, Early: 0, Misses: 0
d7b-> Hits: 18074, Late: 0, Early: 0, Misses: 0
d7c-> Hits: 1392, Late: 16683, Early: 0, Misses: 0
d7e-> Hits: 138, Late: 17936, Early: 0, Misses: 0
d82-> Hits: 25685, Late: 0, Early: 0, Misses: 0
d87-> Hits: 14263, Late: 0, Early: 0, Misses: 0
d8a-> Hits: 9408, Late: 1709, Early: 0, Misses: 0
d8e-> Hits: 13, Late: 13776, Early: 0, Misses: 4285
d8f-> Hits: 30967, Late: 5181, Early: 0, Misses: 0
d90-> Hits: 100, Late: 0, Early: 0, Misses: 0
d94-> Hits: 32313, Late: 0, Early: 0, Misses: 0
d98-> Hits: 16013, Late: 0, Early: 0, Misses: 0
d99-> Hits: 113, Late: 0, Early: 0, Misses: 0
d9c-> Hits: 21861, Late: 30852, Early: 0, Misses: 0
d9d-> Hits: 17260, Late: 0, Early: 0, Misses: 0
da1-> Hits: 27816, Late: 2516, Early: 0, Misses: 0
da5-> Hits: 4401, Late: 0, Early: 0, Misses: 0
da6-> Hits: 4, Late: 0, Early: 0, Misses: 0
da7-> Hits: 449, Late: 17625, Early: 0, Misses: 0
dab-> Hits: 5869, Late: 0, Early: 0, Misses: 0
daf-> Hits: 1109, Late: 84, Early: 0, Misses: 0
db2-> Hits: 18768, Late: 4223, Early: 0, Misses: 289
db3-> Hits: 4747, Late: 13328, Early: 0, Misses: 0
db4-> Hits: 864, Late: 0, Early: 0, Misses: 0
db8-> Hits: 8773, Late: 0, Early: 0, Misses: 0
dbd-> Hits: 11697, Late: 2576, Early: 0, Misses: 0
dcb-> Hits: 26166, Late: 0, Early: 0, Misses: 0
dcd-> Hits: 5993, Late: 2532, Early: 0, Misses: 0
dcf-> Hits: 12593, Late: 2319, Early: 0, Misses: 0
dd3-> Hits: 11, Late: 0, Early: 0, Misses: 0
dd4-> Hits: 12253, Late: 0, Early: 0, Misses: 0
dd6-> Hits: 8468, Late: 0, Early: 0, Misses: 0
dd8-> Hits: 17582, Late: 0, Early: 0, Misses: 0
dd9-> Hits: 11132, Late: 2071, Early: 0, Misses: 0
ddc-> Hits: 18074, Late: 0, Early: 0, Misses: 0
dde-> Hits: 29394, Late: 1321, Early: 0, Misses: 0
de3-> Hits: 1180, Late: 16895, Early: 0, Misses: 0
de5-> Hits: 13662, Late: 0, Early: 0, Misses: 0
de8-> Hits: 14183, Late: 0, Early: 0, Misses: 0
de9-> Hits: 17059, Late: 0, Early: 0, Misses: 0
dea-> Hits: 18074, Late: 0, Early: 0, Misses: 0
dec-> Hits: 11535, Late: 0, Early: 0, Misses: 126
ded-> Hits: 4124, Late: 13951, Early: 0, Misses: 0
df2-> Hits: 25008, Late: 2550, Early: 0, Misses: 0
df5-> Hits: 19, Late: 0, Early: 0, Misses: 0
df6-> Hits: 18121, Late: 0, Early: 0, Misses: 0
df7-> Hits: 15645, Late: 1084, Early: 0, Misses: 0
df9-> Hits: 19, Late: 0, Early: 0, Misses: 0
dfb-> Hits: 25259, Late: 10711, Early: 0, Misses: 0
e00-> Hits: 10617, Late: 0, Early: 0, Misses: 0
e05-> Hits: 8503, Late: 2057, Early: 0, Misses: 0
e06-> Hits: 2184, Late: 15890, Early: 0, Misses: 0
e0a-> Hits: 18067, Late: 0, Early: 0, Misses: 0
e0d-> Hits: 15838, Late: 0, Early: 0, Misses: 0
e0e-> Hits: 8367, Late: 0, Early: 0, Misses: 0
e0f-> Hits: 6126, Late: 0, Early: 0, Misses: 0
e12-> Hits: 10572, Late: 2001, Early: 0, Misses: 0
e13-> Hits: 18074, Late: 0, Early: 0, Misses: 0
e16-> Hits: 5576, Late: 12499, Early: 0, Misses: 0
e17-> Hits: 18074, Late: 0, Early: 0, Misses: 0
e18-> Hits: 12624, Late: 2233, Early: 0, Misses: 0
e1b-> Hits: 12845, Late: 3643, Early: 0, Misses: 0
e1f-> Hits: 1197, Late: 0, Early: 0, Misses: 0
e22-> Hits: 18074, Late: 0, Early: 0, Misses: 0
e26-> Hits: 16637, Late: 0, Early: 0, Misses: 0
e27-> Hits: 13176, Late: 2301, Early: 0, Misses: 0
e2a-> Hits: 17555, Late: 0, Early: 0, Misses: 0
e2d-> Hits: 18074, Late: 0, Early: 0, Misses: 0
e2e-> Hits: 3875, Late: 0, Early: 0, Misses: 0
e33-> Hits: 2311, Late: 0, Early: 0, Misses: 0
e35-> Hits: 2699, Late: 0, Early: 0, Misses: 0
e36-> Hits: 37594, Late: 10586, Early: 0, Misses: 136
e3b-> Hits: 6058, Late: 2434, Early: 0, Misses: 0
e3d-> Hits: 2672, Late: 15395, Early: 0, Misses: 0
e3e-> Hits: 30590, Late: 1, Early: 0, Misses: 5557
e40-> Hits: 34136, Late: 57, Early: 0, Misses: 0
e44-> Hits: 2442, Late: 0, Early: 0, Misses: 0
e46-> Hits: 8444, Late: 0, Early: 0, Misses: 0
e47-> Hits: 15655, Late: 0, Early: 0, Misses: 0
e49-> Hits: 12991, Late: 692, Early: 0, Misses: 0
e4b-> Hits: 6795, Late: 11280, Early: 0, Misses: 0
e4f-> Hits: 17840, Late: 0, Early: 0, Misses: 0
e50-> Hits: 11173, Late: 2866, Early: 0, Misses: 0
e54-> Hits: 34276, Late: 0, Early: 0, Misses: 0
e57-> Hits: 14298, Late: 1423, Early: 0, Misses: 0
e5a-> Hits: 1587, Late: 0, Early: 0, Misses: 0
e5c-> Hits: 14338, Late: 2073, Early: 0, Misses: 0
e5d-> Hits: 5543, Late: 0, Early: 0, Misses: 0
e5f-> Hits: 6860, Late: 11215, Early: 0, Misses: 0
e64-> Hits: 8667, Late: 3195, Early: 0, Misses: 0
e66-> Hits: 536, Late: 0, Early: 0, Misses: 0
e6b-> Hits: 34621, Late: 1371, Early: 0, Misses: 0
e6f-> Hits: 28851, Late: 0, Early: 0, Misses: 0
e70-> Hits: 1, Late: 0, Early: 0, Misses: 0
e72-> Hits: 16098, Late: 1975, Early: 0, Misses: 0
e77-> Hits: 6077, Late: 11998, Early: 0, Misses: 0
e78-> Hits: 1, Late: 0, Early: 0, Misses: 0
e79-> Hits: 1, Late: 18074, Early: 0, Misses: 0
e7a-> Hits: 1, Late: 0, Early: 0, Misses: 0
e7c-> Hits: 9476, Late: 3203, Early: 0, Misses: 0
e7e-> Hits: 1, Late: 0, Early: 0, Misses: 0
e80-> Hits: 1, Late: 0, Early: 0, Misses: 0
e82-> Hits: 3, Late: 0, Early: 0, Misses: 0
e83-> Hits: 1294, Late: 1992, Early: 0, Misses: 0
e86-> Hits: 18074, Late: 0, Early: 0, Misses: 0
e8d-> Hits: 28411, Late: 2297, Early: 0, Misses: 40
e8f-> Hits: 32176, Late: 1, Early: 0, Misses: 152
e97-> Hits: 616, Late: 17459, Early: 0, Misses: 0
e99-> Hits: 18074, Late: 0, Early: 0, Misses: 0
e9c-> Hits: 0, Late: 18075, Early: 0, Misses: 0
ea0-> Hits: 18028, Late: 0, Early: 0, Misses: 0
ea1-> Hits: 3, Late: 0, Early: 0, Misses: 0
ea3-> Hits: 57, Late: 18017, Early: 0, Misses: 0
ea8-> Hits: 6691, Late: 4739, Early: 0, Misses: 0
ea9-> Hits: 18074, Late: 0, Early: 0, Misses: 0
eab-> Hits: 17384, Late: 0, Early: 0, Misses: 0
eaf-> Hits: 16, Late: 18059, Early: 0, Misses: 0
eb8-> Hits: 2460, Late: 503, Early: 0, Misses: 0
ebc-> Hits: 18332, Late: 17817, Early: 0, Misses: 0
ebe-> Hits: 18074, Late: 0, Early: 0, Misses: 0
ec2-> Hits: 6599, Late: 2406, Early: 0, Misses: 97
ec7-> Hits: 9809, Late: 0, Early: 0, Misses: 0
ece-> Hits: 18074, Late: 0, Early: 0, Misses: 0
ecf-> Hits: 433, Late: 2292, Early: 0, Misses: 0
ed1-> Hits: 2, Late: 0, Early: 0, Misses: 0
ed6-> Hits: 12047, Late: 0, Early: 0, Misses: 0
eda-> Hits: 18849, Late: 0, Early: 0, Misses: 0
edb-> Hits: 14333, Late: 1396, Early: 0, Misses: 0
ede-> Hits: 18074, Late: 0, Early: 0, Misses: 0
ee0-> Hits: 18075, Late: 0, Early: 0, Misses: 0
eec-> Hits: 7649, Late: 2356, Early: 0, Misses: 0
eee-> Hits: 17563, Late: 0, Early: 0, Misses: 0
ef1-> Hits: 12527, Late: 0, Early: 0, Misses: 0
ef2-> Hits: 13145, Late: 2088, Early: 0, Misses: 0
ef5-> Hits: 18074, Late: 0, Early: 0, Misses: 0
efb-> Hits: 18074, Late: 0, Early: 0, Misses: 0
f01-> Hits: 60, Late: 18015, Early: 0, Misses: 0
f03-> Hits: 16998, Late: 0, Early: 0, Misses: 1076
f08-> Hits: 14724, Late: 0, Early: 0, Misses: 0
f0c-> Hits: 18073, Late: 0, Early: 0, Misses: 1
f0d-> Hits: 12700, Late: 1622, Early: 0, Misses: 0
f12-> Hits: 15067, Late: 2194, Early: 0, Misses: 0
f14-> Hits: 17432, Late: 0, Early: 0, Misses: 0
f15-> Hits: 17829, Late: 0, Early: 0, Misses: 0
f18-> Hits: 18074, Late: 0, Early: 0, Misses: 0
f19-> Hits: 18075, Late: 0, Early: 0, Misses: 0
f1d-> Hits: 16804, Late: 0, Early: 0, Misses: 0
f1e-> Hits: 18074, Late: 0, Early: 0, Misses: 0
f21-> Hits: 13438, Late: 2306, Early: 0, Misses: 0
f27-> Hits: 18075, Late: 0, Early: 0, Misses: 0
f2a-> Hits: 17690, Late: 0, Early: 0, Misses: 0
f2e-> Hits: 18074, Late: 0, Early: 0, Misses: 0
f31-> Hits: 12846, Late: 0, Early: 0, Misses: 0
f33-> Hits: 1826, Late: 0, Early: 0, Misses: 0
f36-> Hits: 13284, Late: 4790, Early: 0, Misses: 0
f37-> Hits: 786, Late: 17271, Early: 0, Misses: 0
f3b-> Hits: 18074, Late: 0, Early: 0, Misses: 0
f3d-> Hits: 18074, Late: 0, Early: 0, Misses: 0
f3e-> Hits: 19373, Late: 0, Early: 0, Misses: 0
f3f-> Hits: 16633, Late: 0, Early: 0, Misses: 0
f42-> Hits: 1, Late: 0, Early: 0, Misses: 0
f43-> Hits: 13054, Late: 332, Early: 0, Misses: 0
f46-> Hits: 18074, Late: 0, Early: 0, Misses: 0
f48-> Hits: 53590, Late: 0, Early: 0, Misses: 0
f4c-> Hits: 6, Late: 0, Early: 0, Misses: 0
f50-> Hits: 13441, Late: 1816, Early: 0, Misses: 0
f52-> Hits: 28049, Late: 3247, Early: 0, Misses: 0
f56-> Hits: 13658, Late: 2151, Early: 0, Misses: 0
f58-> Hits: 34890, Late: 643, Early: 0, Misses: 0
f5f-> Hits: 15567, Late: 0, Early: 0, Misses: 0
f60-> Hits: 2, Late: 0, Early: 0, Misses: 0
f61-> Hits: 18074, Late: 0, Early: 0, Misses: 0
f64-> Hits: 17122, Late: 0, Early: 0, Misses: 0
f65-> Hits: 16300, Late: 1713, Early: 0, Misses: 0
f6a-> Hits: 18074, Late: 0, Early: 0, Misses: 0
f6c-> Hits: 15821, Late: 2254, Early: 0, Misses: 0
f6d-> Hits: 12756, Late: 0, Early: 0, Misses: 0
f70-> Hits: 31435, Late: 2293, Early: 0, Misses: 0
f73-> Hits: 17615, Late: 18075, Early: 0, Misses: 0
f76-> Hits: 17541, Late: 0, Early: 0, Misses: 0
f79-> Hits: 18074, Late: 0, Early: 0, Misses: 0
f7d-> Hits: 28165, Late: 1796, Early: 0, Misses: 0
f7e-> Hits: 11532, Late: 2202, Early: 0, Misses: 0
f80-> Hits: 18074, Late: 0, Early: 0, Misses: 0
f83-> Hits: 61, Late: 18013, Early: 0, Misses: 0
f89-> Hits: 1208, Late: 16866, Early: 0, Misses: 0
f8c-> Hits: 18074, Late: 0, Early: 0, Misses: 0
f8d-> Hits: 18074, Late: 0, Early: 0, Misses: 0
f8f-> Hits: 55, Late: 18020, Early: 0, Misses: 0
f90-> Hits: 18074, Late: 0, Early: 0, Misses: 0
f92-> Hits: 17387, Late: 0, Early: 0, Misses: 0
f93-> Hits: 18074, Late: 0, Early: 0, Misses: 0
f94-> Hits: 4160, Late: 5787, Early: 0, Misses: 0
f95-> Hits: 18074, Late: 0, Early: 0, Misses: 0
f97-> Hits: 17744, Late: 2234, Early: 0, Misses: 0
f99-> Hits: 12497, Late: 1, Early: 0, Misses: 5576
f9a-> Hits: 30900, Late: 5248, Early: 0, Misses: 0
f9c-> Hits: 11888, Late: 968, Early: 0, Misses: 0
f9e-> Hits: 15267, Late: 448, Early: 0, Misses: 0
fa0-> Hits: 244, Late: 4521, Early: 0, Misses: 11281
fa2-> Hits: 18074, Late: 0, Early: 0, Misses: 0
fa4-> Hits: 1724, Late: 187, Early: 0, Misses: 0
fa5-> Hits: 17980, Late: 0, Early: 0, Misses: 0
fa6-> Hits: 221, Late: 5, Early: 0, Misses: 1136
fa7-> Hits: 1871, Late: 16203, Early: 0, Misses: 0
fa8-> Hits: 3705, Late: 0, Early: 0, Misses: 0
faa-> Hits: 18074, Late: 0, Early: 0, Misses: 0
fab-> Hits: 17631, Late: 22, Early: 0, Misses: 421
fac-> Hits: 17475, Late: 0, Early: 0, Misses: 0
fad-> Hits: 8289, Late: 0, Early: 0, Misses: 0
fb0-> Hits: 1, Late: 18060, Early: 0, Misses: 0
fb1-> Hits: 912, Late: 17162, Early: 0, Misses: 0
fb4-> Hits: 18458, Late: 0, Early: 0, Misses: 0
fb6-> Hits: 134, Late: 0, Early: 0, Misses: 0
fba-> Hits: 18074, Late: 0, Early: 0, Misses: 0
fbb-> Hits: 2084, Late: 15991, Early: 0, Misses: 0
fbe-> Hits: 18447, Late: 17029, Early: 0, Misses: 0
fbf-> Hits: 17451, Late: 0, Early: 0, Misses: 0
fc2-> Hits: 17703, Late: 0, Early: 0, Misses: 0
fc4-> Hits: 878, Late: 4145, Early: 0, Misses: 0
fc7-> Hits: 17084, Late: 0, Early: 0, Misses: 0
fc8-> Hits: 18074, Late: 0, Early: 0, Misses: 0
fcd-> Hits: 17974, Late: 0, Early: 0, Misses: 0
fcf-> Hits: 12767, Late: 358, Early: 0, Misses: 0
fd0-> Hits: 18074, Late: 0, Early: 0, Misses: 0
fd1-> Hits: 18074, Late: 0, Early: 0, Misses: 0
fd2-> Hits: 466, Late: 17608, Early: 0, Misses: 0
fd3-> Hits: 18074, Late: 1, Early: 0, Misses: 0
fd6-> Hits: 17762, Late: 0, Early: 0, Misses: 312
fd7-> Hits: 12745, Late: 2420, Early: 0, Misses: 0
fd8-> Hits: 13812, Late: 4262, Early: 0, Misses: 0
fda-> Hits: 17971, Late: 0, Early: 0, Misses: 0
fdd-> Hits: 7582, Late: 0, Early: 0, Misses: 0
fde-> Hits: 16911, Late: 0, Early: 0, Misses: 0
fe3-> Hits: 39685, Late: 0, Early: 0, Misses: 0
fe4-> Hits: 4648, Late: 2211, Early: 0, Misses: 2336
fe5-> Hits: 19033, Late: 17115, Early: 0, Misses: 0
fea-> Hits: 17906, Late: 0, Early: 0, Misses: 0
fec-> Hits: 18074, Late: 0, Early: 0, Misses: 0
fee-> Hits: 3468, Late: 2505, Early: 0, Misses: 0
ff0-> Hits: 17899, Late: 0, Early: 0, Misses: 0
ff1-> Hits: 17788, Late: 121, Early: 0, Misses: 165
ff2-> Hits: 9602, Late: 1584, Early: 0, Misses: 0
ff5-> Hits: 9802, Late: 0, Early: 0, Misses: 0
ff6-> Hits: 15873, Late: 0, Early: 0, Misses: 0
ff9-> Hits: 18099, Late: 18049, Early: 0, Misses: 0
ffb-> Hits: 254, Late: 0, Early: 0, Misses: 0
ffd-> Hits: 2326, Late: 2473, Early: 0, Misses: 0
ffe-> Hits: 17776, Late: 0, Early: 0, Misses: 298
fff-> Hits: 18074, Late: 0, Early: 0, Misses: 0
Total misses (from ip) 6377786
Total accesses (misses) 30371880 6377786
Pref: Addr 0 IP 0 Current 0
 All Calls: 7965972
 Critical Calls: 7965972
------------------
Depth Distribution
------------------
depth 0: 0
depth 1: 4920949
depth 2: 28124
depth 3: 33
depth 4: 8
depth 5: 5
depth 6: 2
depth 7: 2
depth 8: 1
depth 9: 1
depth 10: 1
depth 11: 0
depth 12: 0
depth 13: 0
depth 14: 0
depth 15: 0
depth 16: 0
depth 17: 0
depth 18: 0
depth 19: 0
depth 20: 0
depth 21: 0
depth 22: 0
depth 23: 0
depth 24: 0
depth 25: 0
depth 26: 0
depth 27: 0
depth 28: 0
depth 29: 0
Total: 4949126
-----------------------------
-----------------------------
	Captured at Filter
-----------------------------
depth 0: 0
depth 1: 89464
depth 2: 3060
depth 3: 0
depth 4: 0
depth 5: 0
depth 6: 0
depth 7: 0
depth 8: 0
depth 9: 0
depth 10: 0
depth 11: 0
depth 12: 0
depth 13: 0
depth 14: 0
depth 15: 0
depth 16: 0
depth 17: 0
depth 18: 0
depth 19: 0
depth 20: 0
depth 21: 0
depth 22: 0
depth 23: 0
depth 24: 0
depth 25: 0
depth 26: 0
depth 27: 0
depth 28: 0
depth 29: 0
-----------------------------
-----------------------------
		Lost at Page
-----------------------------
depth 0: 0
depth 1: 1282224
depth 2: 1579
depth 3: 6
depth 4: 4
depth 5: 3
depth 6: 2
depth 7: 2
depth 8: 1
depth 9: 1
depth 10: 0
depth 11: 0
depth 12: 0
depth 13: 0
depth 14: 0
depth 15: 0
depth 16: 0
depth 17: 0
depth 18: 0
depth 19: 0
depth 20: 0
depth 21: 0
depth 22: 0
depth 23: 0
depth 24: 0
depth 25: 0
depth 26: 0
depth 27: 0
depth 28: 0
depth 29: 0
-----------------------------
-----------------------------
	Lost due to PQ Size
-----------------------------
146902
-----------------------------
ST read accesses: 3943419
ST write accesses: 1572
PT read accesses: 42727115
PT write accesses: 4927651
FILTER read accesses: 6906826
FILTER write accesses: 369727
GHR read accesses: 4383522
GHR write accesses: 625296
GHR counter read accesses: 34710622
GHR counter write accesses: 3983195
ST tag read accesses: 1512718364
ST tag write accesses: 283256571

DRAM Statistics
 CHANNEL 0
 RQ ROW_BUFFER_HIT:      71266  ROW_BUFFER_MISS:      61157
 DBUS_CONGESTED:        147
 WQ ROW_BUFFER_HIT:       7346  ROW_BUFFER_MISS:      21758  FULL:          0

 AVG_CONGESTED_CYCLE: 4
 All warmup complete: 2
Channel 0 Bank busy for read cycles: 0
Channel 0 Bank busy for write cycles: 0
Channel 0
Rank 0
0banks busy for read cycles: 43669224
0banks busy for write cycles: 15386
1banks busy for read cycles: 6144973
1banks busy for write cycles: 2181407
2banks busy for read cycles: 1628822
2banks busy for write cycles: 579354
3banks busy for read cycles: 472078
3banks busy for write cycles: 231754
4banks busy for read cycles: 173473
4banks busy for write cycles: 112447
5banks busy for read cycles: 100701
5banks busy for write cycles: 52509
6banks busy for read cycles: 74404
6banks busy for write cycles: 26128
7banks busy for read cycles: 32589
7banks busy for write cycles: 8385
8banks busy for read cycles: 5901
8banks busy for write cycles: 981

CPU 0 Branch Prediction Accuracy: 99.9878% MPKI: 0.00108 Average ROB Occupancy at Mispredict: 27.1111
Branch types
NOT_BRANCH: 49556772 99.1135%
BRANCH_DIRECT_JUMP: 54228 0.108456%
BRANCH_INDIRECT: 9038 0.018076%
BRANCH_CONDITIONAL: 271248 0.542496%
BRANCH_DIRECT_CALL: 54228 0.108456%
BRANCH_INDIRECT_CALL: 0 0%
BRANCH_RETURN: 54228 0.108456%
BRANCH_OTHER: 0 0%

DRAM PAGES: 1048576
Allocated PAGES: 4562
