
*** ChampSim Multicore Out-of-Order Simulator ***

Warmup Instructions: 50000000
Simulation Instructions: 50000000
Number of CPUs: 1
LLC sets: 2048
LLC ways: 16
Off-chip DRAM Size: 4096 MB Channels: 1 Width: 64-bit Data Rate: 6400 MT/s
CPU 0 runs ./tracer/traces/607.cactuBSSN_s-4004B.champsimtrace.xz
.xz
CPU 0 Bimodal branch predictor
BTB has LRU replacement policy
ITLB has LRU replacement policy
DTLB has LRU replacement policy
STLB has LRU replacement policy
L1I has LRU replacement policy
CPU 0 L1D Berti prefetcher
L1D has LRU replacement policy
IP_Table L2 entries: 1024
Initialize SRRIP state for L2C
Initialize SHIP state
Assign rand_sets[0]: 454  LLC: 2048
rand_sets[0]: 454
Assign rand_sets[1]: 1662  LLC: 2048
rand_sets[1]: 1662
Assign rand_sets[2]: 1921  LLC: 2048
rand_sets[2]: 1921
Assign rand_sets[3]: 1131  LLC: 2048
rand_sets[3]: 1131
Assign rand_sets[4]: 331  LLC: 2048
rand_sets[4]: 331
Assign rand_sets[5]: 1531  LLC: 2048
rand_sets[5]: 1531
Assign rand_sets[6]: 482  LLC: 2048
rand_sets[6]: 482
Assign rand_sets[7]: 1275  LLC: 2048
rand_sets[7]: 1275
Assign rand_sets[8]: 1876  LLC: 2048
rand_sets[8]: 1876
Assign rand_sets[9]: 2038  LLC: 2048
rand_sets[9]: 2038
Assign rand_sets[10]: 701  LLC: 2048
rand_sets[10]: 701
Assign rand_sets[11]: 479  LLC: 2048
rand_sets[11]: 479
Assign rand_sets[12]: 892  LLC: 2048
rand_sets[12]: 892
Assign rand_sets[13]: 1820  LLC: 2048
rand_sets[13]: 1820
Assign rand_sets[14]: 1505  LLC: 2048
rand_sets[14]: 1505
Assign rand_sets[15]: 1159  LLC: 2048
rand_sets[15]: 1159
Assign rand_sets[16]: 513  LLC: 2048
rand_sets[16]: 513
Assign rand_sets[17]: 703  LLC: 2048
rand_sets[17]: 703
Assign rand_sets[18]: 561  LLC: 2048
rand_sets[18]: 561
Assign rand_sets[19]: 990  LLC: 2048
rand_sets[19]: 990
Assign rand_sets[20]: 342  LLC: 2048
rand_sets[20]: 342
Assign rand_sets[21]: 882  LLC: 2048
rand_sets[21]: 882
Assign rand_sets[22]: 15  LLC: 2048
rand_sets[22]: 15
Assign rand_sets[23]: 71  LLC: 2048
rand_sets[23]: 71
Assign rand_sets[24]: 1127  LLC: 2048
rand_sets[24]: 1127
Assign rand_sets[25]: 1382  LLC: 2048
rand_sets[25]: 1382
Assign rand_sets[26]: 647  LLC: 2048
rand_sets[26]: 647
Assign rand_sets[27]: 857  LLC: 2048
rand_sets[27]: 857
Assign rand_sets[28]: 1450  LLC: 2048
rand_sets[28]: 1450
Assign rand_sets[29]: 1160  LLC: 2048
rand_sets[29]: 1160
Assign rand_sets[30]: 1852  LLC: 2048
rand_sets[30]: 1852
Assign rand_sets[31]: 1881  LLC: 2048
rand_sets[31]: 1881
Assign rand_sets[32]: 1770  LLC: 2048
rand_sets[32]: 1770
Assign rand_sets[33]: 1622  LLC: 2048
rand_sets[33]: 1622
Assign rand_sets[34]: 275  LLC: 2048
rand_sets[34]: 275
Assign rand_sets[35]: 635  LLC: 2048
rand_sets[35]: 635
Assign rand_sets[36]: 466  LLC: 2048
rand_sets[36]: 466
Assign rand_sets[37]: 1413  LLC: 2048
rand_sets[37]: 1413
Assign rand_sets[38]: 417  LLC: 2048
rand_sets[38]: 417
Assign rand_sets[39]: 472  LLC: 2048
rand_sets[39]: 472
Assign rand_sets[40]: 1340  LLC: 2048
rand_sets[40]: 1340
Assign rand_sets[41]: 852  LLC: 2048
rand_sets[41]: 852
Assign rand_sets[42]: 1365  LLC: 2048
rand_sets[42]: 1365
Assign rand_sets[43]: 47  LLC: 2048
rand_sets[43]: 47
Assign rand_sets[44]: 823  LLC: 2048
rand_sets[44]: 823
Assign rand_sets[45]: 686  LLC: 2048
rand_sets[45]: 686
Assign rand_sets[46]: 1637  LLC: 2048
rand_sets[46]: 1637
Assign rand_sets[47]: 1115  LLC: 2048
rand_sets[47]: 1115
Assign rand_sets[48]: 986  LLC: 2048
rand_sets[48]: 986
Assign rand_sets[49]: 258  LLC: 2048
rand_sets[49]: 258
Assign rand_sets[50]: 633  LLC: 2048
rand_sets[50]: 633
Assign rand_sets[51]: 920  LLC: 2048
rand_sets[51]: 920
Assign rand_sets[52]: 204  LLC: 2048
rand_sets[52]: 204
Assign rand_sets[53]: 227  LLC: 2048
rand_sets[53]: 227
Assign rand_sets[54]: 1818  LLC: 2048
rand_sets[54]: 1818
Assign rand_sets[55]: 886  LLC: 2048
rand_sets[55]: 886
Assign rand_sets[56]: 1422  LLC: 2048
rand_sets[56]: 1422
Assign rand_sets[57]: 607  LLC: 2048
rand_sets[57]: 607
Assign rand_sets[58]: 217  LLC: 2048
rand_sets[58]: 217
Assign rand_sets[59]: 1945  LLC: 2048
rand_sets[59]: 1945
Assign rand_sets[60]: 143  LLC: 2048
rand_sets[60]: 143
Assign rand_sets[61]: 1311  LLC: 2048
rand_sets[61]: 1311
Assign rand_sets[62]: 319  LLC: 2048
rand_sets[62]: 319
Assign rand_sets[63]: 1846  LLC: 2048
rand_sets[63]: 1846
Assign rand_sets[64]: 238  LLC: 2048
rand_sets[64]: 238
Assign rand_sets[65]: 67  LLC: 2048
rand_sets[65]: 67
Assign rand_sets[66]: 1912  LLC: 2048
rand_sets[66]: 1912
Assign rand_sets[67]: 1613  LLC: 2048
rand_sets[67]: 1613
Assign rand_sets[68]: 1293  LLC: 2048
rand_sets[68]: 1293
Assign rand_sets[69]: 1018  LLC: 2048
rand_sets[69]: 1018
Assign rand_sets[70]: 1982  LLC: 2048
rand_sets[70]: 1982
Assign rand_sets[71]: 1702  LLC: 2048
rand_sets[71]: 1702
Assign rand_sets[72]: 1498  LLC: 2048
rand_sets[72]: 1498
Assign rand_sets[73]: 228  LLC: 2048
rand_sets[73]: 228
Assign rand_sets[74]: 1414  LLC: 2048
rand_sets[74]: 1414
Assign rand_sets[75]: 1166  LLC: 2048
rand_sets[75]: 1166
Assign rand_sets[76]: 732  LLC: 2048
rand_sets[76]: 732
Assign rand_sets[77]: 297  LLC: 2048
rand_sets[77]: 297
Assign rand_sets[78]: 1133  LLC: 2048
rand_sets[78]: 1133
Assign rand_sets[79]: 846  LLC: 2048
rand_sets[79]: 846
Assign rand_sets[80]: 767  LLC: 2048
rand_sets[80]: 767
Assign rand_sets[81]: 1878  LLC: 2048
rand_sets[81]: 1878
Assign rand_sets[82]: 993  LLC: 2048
rand_sets[82]: 993
Assign rand_sets[83]: 1392  LLC: 2048
rand_sets[83]: 1392
Assign rand_sets[84]: 1568  LLC: 2048
rand_sets[84]: 1568
Assign rand_sets[85]: 1787  LLC: 2048
rand_sets[85]: 1787
Assign rand_sets[86]: 399  LLC: 2048
rand_sets[86]: 399
Assign rand_sets[87]: 1201  LLC: 2048
rand_sets[87]: 1201
Assign rand_sets[88]: 856  LLC: 2048
rand_sets[88]: 856
Assign rand_sets[89]: 773  LLC: 2048
rand_sets[89]: 773
Assign rand_sets[90]: 1680  LLC: 2048
rand_sets[90]: 1680
Assign rand_sets[91]: 1477  LLC: 2048
rand_sets[91]: 1477
Assign rand_sets[92]: 9  LLC: 2048
rand_sets[92]: 9
Assign rand_sets[93]: 1500  LLC: 2048
rand_sets[93]: 1500
Assign rand_sets[94]: 851  LLC: 2048
rand_sets[94]: 851
Assign rand_sets[95]: 973  LLC: 2048
rand_sets[95]: 973
Assign rand_sets[96]: 938  LLC: 2048
rand_sets[96]: 938
Assign rand_sets[97]: 1851  LLC: 2048
rand_sets[97]: 1851
Assign rand_sets[98]: 1608  LLC: 2048
rand_sets[98]: 1608
Assign rand_sets[99]: 1945  LLC: 2048
Assign rand_sets[99]: 1106  LLC: 2048
rand_sets[99]: 1106
Assign rand_sets[100]: 979  LLC: 2048
rand_sets[100]: 979
Assign rand_sets[101]: 338  LLC: 2048
rand_sets[101]: 338
Assign rand_sets[102]: 1693  LLC: 2048
rand_sets[102]: 1693
Assign rand_sets[103]: 6  LLC: 2048
rand_sets[103]: 6
Assign rand_sets[104]: 671  LLC: 2048
rand_sets[104]: 671
Assign rand_sets[105]: 490  LLC: 2048
rand_sets[105]: 490
Assign rand_sets[106]: 1461  LLC: 2048
rand_sets[106]: 1461
Assign rand_sets[107]: 1730  LLC: 2048
rand_sets[107]: 1730
Assign rand_sets[108]: 1030  LLC: 2048
rand_sets[108]: 1030
Assign rand_sets[109]: 19  LLC: 2048
rand_sets[109]: 19
Assign rand_sets[110]: 920  LLC: 2048
Assign rand_sets[110]: 329  LLC: 2048
rand_sets[110]: 329
Assign rand_sets[111]: 1714  LLC: 2048
rand_sets[111]: 1714
Assign rand_sets[112]: 1  LLC: 2048
rand_sets[112]: 1
Assign rand_sets[113]: 1822  LLC: 2048
rand_sets[113]: 1822
Assign rand_sets[114]: 172  LLC: 2048
rand_sets[114]: 172
Assign rand_sets[115]: 1586  LLC: 2048
rand_sets[115]: 1586
Assign rand_sets[116]: 648  LLC: 2048
rand_sets[116]: 648
Assign rand_sets[117]: 1329  LLC: 2048
rand_sets[117]: 1329
Assign rand_sets[118]: 668  LLC: 2048
rand_sets[118]: 668
Assign rand_sets[119]: 1874  LLC: 2048
rand_sets[119]: 1874
Assign rand_sets[120]: 70  LLC: 2048
rand_sets[120]: 70
Assign rand_sets[121]: 661  LLC: 2048
rand_sets[121]: 661
Assign rand_sets[122]: 1649  LLC: 2048
rand_sets[122]: 1649
Assign rand_sets[123]: 1590  LLC: 2048
rand_sets[123]: 1590
Assign rand_sets[124]: 911  LLC: 2048
rand_sets[124]: 911
Assign rand_sets[125]: 1367  LLC: 2048
rand_sets[125]: 1367
Assign rand_sets[126]: 1782  LLC: 2048
rand_sets[126]: 1782
Assign rand_sets[127]: 569  LLC: 2048
rand_sets[127]: 569
Assign rand_sets[128]: 1309  LLC: 2048
rand_sets[128]: 1309
Assign rand_sets[129]: 534  LLC: 2048
rand_sets[129]: 534
Assign rand_sets[130]: 1274  LLC: 2048
rand_sets[130]: 1274
Assign rand_sets[131]: 904  LLC: 2048
rand_sets[131]: 904
Assign rand_sets[132]: 1908  LLC: 2048
rand_sets[132]: 1908
Assign rand_sets[133]: 245  LLC: 2048
rand_sets[133]: 245
Assign rand_sets[134]: 1688  LLC: 2048
rand_sets[134]: 1688
Assign rand_sets[135]: 1660  LLC: 2048
rand_sets[135]: 1660
Assign rand_sets[136]: 1303  LLC: 2048
rand_sets[136]: 1303
Assign rand_sets[137]: 1628  LLC: 2048
rand_sets[137]: 1628
Assign rand_sets[138]: 1857  LLC: 2048
rand_sets[138]: 1857
Assign rand_sets[139]: 187  LLC: 2048
rand_sets[139]: 187
Assign rand_sets[140]: 1389  LLC: 2048
rand_sets[140]: 1389
Assign rand_sets[141]: 881  LLC: 2048
rand_sets[141]: 881
Assign rand_sets[142]: 1166  LLC: 2048
Assign rand_sets[142]: 1039  LLC: 2048
rand_sets[142]: 1039
Assign rand_sets[143]: 1136  LLC: 2048
rand_sets[143]: 1136
Assign rand_sets[144]: 601  LLC: 2048
rand_sets[144]: 601
Assign rand_sets[145]: 967  LLC: 2048
rand_sets[145]: 967
Assign rand_sets[146]: 769  LLC: 2048
rand_sets[146]: 769
Assign rand_sets[147]: 283  LLC: 2048
rand_sets[147]: 283
Assign rand_sets[148]: 559  LLC: 2048
rand_sets[148]: 559
Assign rand_sets[149]: 1075  LLC: 2048
rand_sets[149]: 1075
Assign rand_sets[150]: 829  LLC: 2048
rand_sets[150]: 829
Assign rand_sets[151]: 1681  LLC: 2048
rand_sets[151]: 1681
Assign rand_sets[152]: 1728  LLC: 2048
rand_sets[152]: 1728
Assign rand_sets[153]: 541  LLC: 2048
rand_sets[153]: 541
Assign rand_sets[154]: 421  LLC: 2048
rand_sets[154]: 421
Assign rand_sets[155]: 1037  LLC: 2048
rand_sets[155]: 1037
Assign rand_sets[156]: 13  LLC: 2048
rand_sets[156]: 13
Assign rand_sets[157]: 1707  LLC: 2048
rand_sets[157]: 1707
Assign rand_sets[158]: 1075  LLC: 2048
Assign rand_sets[158]: 1933  LLC: 2048
rand_sets[158]: 1933
Assign rand_sets[159]: 1406  LLC: 2048
rand_sets[159]: 1406
Assign rand_sets[160]: 94  LLC: 2048
rand_sets[160]: 94
Assign rand_sets[161]: 1423  LLC: 2048
rand_sets[161]: 1423
Assign rand_sets[162]: 1854  LLC: 2048
rand_sets[162]: 1854
Assign rand_sets[163]: 230  LLC: 2048
rand_sets[163]: 230
Assign rand_sets[164]: 104  LLC: 2048
rand_sets[164]: 104
Assign rand_sets[165]: 1652  LLC: 2048
rand_sets[165]: 1652
Assign rand_sets[166]: 1446  LLC: 2048
rand_sets[166]: 1446
Assign rand_sets[167]: 1338  LLC: 2048
rand_sets[167]: 1338
Assign rand_sets[168]: 177  LLC: 2048
rand_sets[168]: 177
Assign rand_sets[169]: 195  LLC: 2048
rand_sets[169]: 195
Assign rand_sets[170]: 1171  LLC: 2048
rand_sets[170]: 1171
Assign rand_sets[171]: 1297  LLC: 2048
rand_sets[171]: 1297
Assign rand_sets[172]: 1704  LLC: 2048
rand_sets[172]: 1704
Assign rand_sets[173]: 100  LLC: 2048
rand_sets[173]: 100
Assign rand_sets[174]: 711  LLC: 2048
rand_sets[174]: 711
Assign rand_sets[175]: 1243  LLC: 2048
rand_sets[175]: 1243
Assign rand_sets[176]: 1738  LLC: 2048
rand_sets[176]: 1738
Assign rand_sets[177]: 1504  LLC: 2048
rand_sets[177]: 1504
Assign rand_sets[178]: 96  LLC: 2048
rand_sets[178]: 96
Assign rand_sets[179]: 1249  LLC: 2048
rand_sets[179]: 1249
Assign rand_sets[180]: 1267  LLC: 2048
rand_sets[180]: 1267
Assign rand_sets[181]: 1727  LLC: 2048
rand_sets[181]: 1727
Assign rand_sets[182]: 1545  LLC: 2048
rand_sets[182]: 1545
Assign rand_sets[183]: 1792  LLC: 2048
rand_sets[183]: 1792
Assign rand_sets[184]: 1383  LLC: 2048
rand_sets[184]: 1383
Assign rand_sets[185]: 1954  LLC: 2048
rand_sets[185]: 1954
Assign rand_sets[186]: 739  LLC: 2048
rand_sets[186]: 739
Assign rand_sets[187]: 1061  LLC: 2048
rand_sets[187]: 1061
Assign rand_sets[188]: 672  LLC: 2048
rand_sets[188]: 672
Assign rand_sets[189]: 1057  LLC: 2048
rand_sets[189]: 1057
Assign rand_sets[190]: 1329  LLC: 2048
Assign rand_sets[190]: 1415  LLC: 2048
rand_sets[190]: 1415
Assign rand_sets[191]: 981  LLC: 2048
rand_sets[191]: 981
Assign rand_sets[192]: 98  LLC: 2048
rand_sets[192]: 98
Assign rand_sets[193]: 453  LLC: 2048
rand_sets[193]: 453
Assign rand_sets[194]: 1448  LLC: 2048
rand_sets[194]: 1448
Assign rand_sets[195]: 79  LLC: 2048
rand_sets[195]: 79
Assign rand_sets[196]: 126  LLC: 2048
rand_sets[196]: 126
Assign rand_sets[197]: 1582  LLC: 2048
rand_sets[197]: 1582
Assign rand_sets[198]: 1289  LLC: 2048
rand_sets[198]: 1289
Assign rand_sets[199]: 875  LLC: 2048
rand_sets[199]: 875
Assign rand_sets[200]: 404  LLC: 2048
rand_sets[200]: 404
Assign rand_sets[201]: 415  LLC: 2048
rand_sets[201]: 415
Assign rand_sets[202]: 1712  LLC: 2048
rand_sets[202]: 1712
Assign rand_sets[203]: 1389  LLC: 2048
Assign rand_sets[203]: 169  LLC: 2048
rand_sets[203]: 169
Assign rand_sets[204]: 158  LLC: 2048
rand_sets[204]: 158
Assign rand_sets[205]: 90  LLC: 2048
rand_sets[205]: 90
Assign rand_sets[206]: 1291  LLC: 2048
rand_sets[206]: 1291
Assign rand_sets[207]: 838  LLC: 2048
rand_sets[207]: 838
Assign rand_sets[208]: 1904  LLC: 2048
rand_sets[208]: 1904
Assign rand_sets[209]: 640  LLC: 2048
rand_sets[209]: 640
Assign rand_sets[210]: 1462  LLC: 2048
rand_sets[210]: 1462
Assign rand_sets[211]: 1487  LLC: 2048
rand_sets[211]: 1487
Assign rand_sets[212]: 1863  LLC: 2048
rand_sets[212]: 1863
Assign rand_sets[213]: 1036  LLC: 2048
rand_sets[213]: 1036
Assign rand_sets[214]: 1702  LLC: 2048
Assign rand_sets[214]: 933  LLC: 2048
rand_sets[214]: 933
Assign rand_sets[215]: 554  LLC: 2048
rand_sets[215]: 554
Assign rand_sets[216]: 1496  LLC: 2048
rand_sets[216]: 1496
Assign rand_sets[217]: 1708  LLC: 2048
rand_sets[217]: 1708
Assign rand_sets[218]: 1275  LLC: 2048
Assign rand_sets[218]: 416  LLC: 2048
rand_sets[218]: 416
Assign rand_sets[219]: 491  LLC: 2048
rand_sets[219]: 491
Assign rand_sets[220]: 183  LLC: 2048
rand_sets[220]: 183
Assign rand_sets[221]: 1657  LLC: 2048
rand_sets[221]: 1657
Assign rand_sets[222]: 1060  LLC: 2048
rand_sets[222]: 1060
Assign rand_sets[223]: 626  LLC: 2048
rand_sets[223]: 626
Assign rand_sets[224]: 1315  LLC: 2048
rand_sets[224]: 1315
Assign rand_sets[225]: 1682  LLC: 2048
rand_sets[225]: 1682
Assign rand_sets[226]: 1352  LLC: 2048
rand_sets[226]: 1352
Assign rand_sets[227]: 1152  LLC: 2048
rand_sets[227]: 1152
Assign rand_sets[228]: 965  LLC: 2048
rand_sets[228]: 965
Assign rand_sets[229]: 1190  LLC: 2048
rand_sets[229]: 1190
Assign rand_sets[230]: 1191  LLC: 2048
rand_sets[230]: 1191
Assign rand_sets[231]: 645  LLC: 2048
rand_sets[231]: 645
Assign rand_sets[232]: 695  LLC: 2048
rand_sets[232]: 695
Assign rand_sets[233]: 1495  LLC: 2048
rand_sets[233]: 1495
Assign rand_sets[234]: 1932  LLC: 2048
rand_sets[234]: 1932
Assign rand_sets[235]: 656  LLC: 2048
rand_sets[235]: 656
Assign rand_sets[236]: 1508  LLC: 2048
rand_sets[236]: 1508
Assign rand_sets[237]: 939  LLC: 2048
rand_sets[237]: 939
Assign rand_sets[238]: 355  LLC: 2048
rand_sets[238]: 355
Assign rand_sets[239]: 1092  LLC: 2048
rand_sets[239]: 1092
Assign rand_sets[240]: 850  LLC: 2048
rand_sets[240]: 850
Assign rand_sets[241]: 102  LLC: 2048
rand_sets[241]: 102
Assign rand_sets[242]: 1763  LLC: 2048
rand_sets[242]: 1763
Assign rand_sets[243]: 668  LLC: 2048
Assign rand_sets[243]: 51  LLC: 2048
rand_sets[243]: 51
Assign rand_sets[244]: 1317  LLC: 2048
rand_sets[244]: 1317
Assign rand_sets[245]: 2041  LLC: 2048
rand_sets[245]: 2041
Assign rand_sets[246]: 1374  LLC: 2048
rand_sets[246]: 1374
Assign rand_sets[247]: 682  LLC: 2048
rand_sets[247]: 682
Assign rand_sets[248]: 1466  LLC: 2048
rand_sets[248]: 1466
Assign rand_sets[249]: 1139  LLC: 2048
rand_sets[249]: 1139
Assign rand_sets[250]: 1632  LLC: 2048
rand_sets[250]: 1632
Assign rand_sets[251]: 1117  LLC: 2048
rand_sets[251]: 1117
Assign rand_sets[252]: 1611  LLC: 2048
rand_sets[252]: 1611
Assign rand_sets[253]: 1905  LLC: 2048
rand_sets[253]: 1905
Assign rand_sets[254]: 1662  LLC: 2048
Assign rand_sets[254]: 446  LLC: 2048
rand_sets[254]: 446
Assign rand_sets[255]: 1705  LLC: 2048
rand_sets[255]: 1705
Heartbeat CPU 0 instructions: 10000001 cycles: 3581583 heartbeat IPC: 2.79206 cumulative IPC: 2.79206 (Simulation time: 0 hr 1 min 48 sec) 
Heartbeat CPU 0 instructions: 20000002 cycles: 7163910 heartbeat IPC: 2.79148 cumulative IPC: 2.79177 (Simulation time: 0 hr 4 min 3 sec) 
Heartbeat CPU 0 instructions: 30000003 cycles: 10744424 heartbeat IPC: 2.7929 cumulative IPC: 2.79215 (Simulation time: 0 hr 6 min 36 sec) 
Heartbeat CPU 0 instructions: 40000000 cycles: 14328019 heartbeat IPC: 2.79049 cumulative IPC: 2.79173 (Simulation time: 0 hr 9 min 9 sec) 
Heartbeat CPU 0 instructions: 50000002 cycles: 17908972 heartbeat IPC: 2.79255 cumulative IPC: 2.7919 (Simulation time: 0 hr 11 min 42 sec) 

Warmup complete CPU 0 instructions: 50000002 cycles: 17908972 (Simulation time: 0 hr 11 min 42 sec) 

Heartbeat CPU 0 instructions: 60000002 cycles: 29024566 heartbeat IPC: 0.899637 cumulative IPC: 0.899637 (Simulation time: 0 hr 14 min 34 sec) 
Heartbeat CPU 0 instructions: 70000003 cycles: 40127948 heartbeat IPC: 0.900627 cumulative IPC: 0.900132 (Simulation time: 0 hr 17 min 23 sec) 
Heartbeat CPU 0 instructions: 80000002 cycles: 51370255 heartbeat IPC: 0.889497 cumulative IPC: 0.896559 (Simulation time: 0 hr 19 min 11 sec) 
Heartbeat CPU 0 instructions: 90000003 cycles: 62462410 heartbeat IPC: 0.901538 cumulative IPC: 0.897798 (Simulation time: 0 hr 20 min 35 sec) 
Heartbeat CPU 0 instructions: 100000000 cycles: 73566931 heartbeat IPC: 0.900534 cumulative IPC: 0.898344 (Simulation time: 0 hr 21 min 45 sec) 
Finished CPU 0 instructions: 50000002 cycles: 55657962 cumulative IPC: 0.898344 (Simulation time: 0 hr 21 min 45 sec) 

ChampSim completed all CPUs

Region of Interest Statistics

CPU 0 cumulative IPC: 0.898344 instructions: 50000002 cycles: 55657962
ITLB TOTAL     ACCESS:    6975311  HIT:    6975311  MISS:          0  HIT %:        100  MISS %:          0   MPKI: 0
ITLB LOAD TRANSLATION ACCESS:    6975311  HIT:    6975311  MISS:          0  HIT %:        100  MISS %:          0   MPKI: 0
ITLB PREFETCH  REQUESTED:          0  ISSUED:          0  USEFUL:          0  USELESS:          0
ITLB USEFUL LOAD PREFETCHES:          0 PREFETCH ISSUED TO LOWER LEVEL:          0  ACCURACY: -nan
ITLB TIMELY PREFETCHES:          0 LATE PREFETCHES: 0 DROPPED PREFETCHES: 0
ITLB PREFETCHES SAME FILL-ORIGIN LEVEL: 0 DIFFERENT FILL-ORIGIN LEVEL: 0
ITLB AVERAGE MISS LATENCY: -nan cycles
ITLB RQ	ACCESS:    8476499	FORWARD:          0	MERGED:    1501189	TO_CACHE:    6975310

DTLB TOTAL     ACCESS:   14177942  HIT:   12243983  MISS:    1933959  HIT %:    86.3594  MISS %:    13.6406   MPKI: 38.6792
DTLB LOAD TRANSLATION ACCESS:   14177942  HIT:   12243983  MISS:    1933959  HIT %:    86.3594  MISS %:    13.6406   MPKI: 38.6792
DTLB PREFETCH  REQUESTED:          0  ISSUED:          0  USEFUL:          0  USELESS:          0
DTLB USEFUL LOAD PREFETCHES:          0 PREFETCH ISSUED TO LOWER LEVEL:          0  ACCURACY: -nan
DTLB TIMELY PREFETCHES:          0 LATE PREFETCHES: 0 DROPPED PREFETCHES: 0
DTLB PREFETCHES SAME FILL-ORIGIN LEVEL: 0 DIFFERENT FILL-ORIGIN LEVEL: 0
DTLB AVERAGE MISS LATENCY: 10.4415 cycles
DTLB RQ	ACCESS:   19830158	FORWARD:          0	MERGED:    5437123	TO_CACHE:   14393035

STLB TOTAL     ACCESS:    7769485  HIT:    7767291  MISS:       2194  HIT %:    99.9718  MISS %:  0.0282387   MPKI: 0.04388
STLB LOAD TRANSLATION ACCESS:    1933959  HIT:    1931765  MISS:       2194  HIT %:    99.8866  MISS %:   0.113446   MPKI: 0.04388
STLB TRANSLATION FROM L1D PREFETCHER ACCESS:    5835526  HIT:    5835526  MISS:          0  HIT %:        100  MISS %:          0   MPKI: 0
STLB PREFETCH  REQUESTED:          0  ISSUED:          0  USEFUL:          0  USELESS:          0
STLB USEFUL LOAD PREFETCHES:          0 PREFETCH ISSUED TO LOWER LEVEL:          0  ACCURACY: -nan
STLB TIMELY PREFETCHES:          0 LATE PREFETCHES: 0 DROPPED PREFETCHES: 0
STLB PREFETCHES SAME FILL-ORIGIN LEVEL: 0 DIFFERENT FILL-ORIGIN LEVEL: 0
STLB AVERAGE MISS LATENCY: 850.568 cycles
STLB RQ	ACCESS:   12862081	FORWARD:          0	MERGED:    5092597	TO_CACHE:    7769484

STLB Hit, L1D data hit: 0
STLB Hit, L2C data hit: 0
STLB Hit, LLC data hit: 0
STLB Hit, LLC data miss: 0
STLB STLB hints to L2: 0
L1D TOTAL     ACCESS:   30462003  HIT:   26016637  MISS:    4445366  HIT %:    85.4068  MISS %:    14.5932   MPKI: 88.9073
L1D LOAD      ACCESS:   15721064  HIT:   12524539  MISS:    3196525  HIT %:    79.6672  MISS %:    20.3328   MPKI: 63.9305
L1D RFO       ACCESS:    4009451  HIT:    3712862  MISS:     296589  HIT %:    92.6028  MISS %:    7.39725   MPKI: 5.93178
L1D PREFETCH  ACCESS:   10731488  HIT:    9779236  MISS:     952252  HIT %:    91.1266  MISS %:    8.87344   MPKI: 19.045
AGUS PREFETCH L1 MISS: 0
L1D PREFETCH  REQUESTED:   22507407  ISSUED:   22507407  USEFUL:     420655  USELESS:     531596
L1D USEFUL LOAD PREFETCHES:     420655 PREFETCH ISSUED TO LOWER LEVEL:    1022877  ACCURACY: 41.1247
L1D TIMELY PREFETCHES:     420655 LATE PREFETCHES: 70376 DROPPED PREFETCHES: 0
L1D PREFETCHES SAME FILL-ORIGIN LEVEL: 1022877 DIFFERENT FILL-ORIGIN LEVEL: 0
L1D AVERAGE MISS LATENCY: 724344 cycles
L1D RQ	ACCESS:   19468643	FORWARD:          0	MERGED:    3656526	TO_CACHE:   15804467
L1D WQ	ACCESS:    4052954	FORWARD:      31200	MERGED:      27263	TO_CACHE:    4025691
L1D PQ	ACCESS:   11579285	FORWARD:          0	MERGED:     627613	TO_CACHE:   10928122

L1D UNIQUE REGIONS ACCESSED: 0
L1D REGIONS CONFLICTS: 0
L1D Cross Page Prefetch Requests: 0
L1D Same Page Prefetch Requests: 21676074
L1D ROI Sum of L1D PQ occupancy: 138515233
L1D PREFETCHES PUSHED FROM L2C: 0
L1I TOTAL     ACCESS:    7813395  HIT:    6513392  MISS:    1300003  HIT %:    83.3619  MISS %:    16.6381   MPKI: 26.0001
L1I LOAD      ACCESS:    7813395  HIT:    6513392  MISS:    1300003  HIT %:    83.3619  MISS %:    16.6381   MPKI: 26.0001
L1I PREFETCH  REQUESTED:          0  ISSUED:          0  USEFUL:          0  USELESS:          0
L1I USEFUL LOAD PREFETCHES:          0 PREFETCH ISSUED TO LOWER LEVEL:          0  ACCURACY: -nan
L1I TIMELY PREFETCHES:          0 LATE PREFETCHES: 0 DROPPED PREFETCHES: 0
L1I PREFETCHES SAME FILL-ORIGIN LEVEL: 0 DIFFERENT FILL-ORIGIN LEVEL: 0
L1I AVERAGE MISS LATENCY: 14.0722 cycles
L1I RQ	ACCESS:   11885384	FORWARD:          0	MERGED:    3408885	TO_CACHE:    8476499

BTB TOTAL     ACCESS:     281772  HIT:     263571  MISS:      18201  HIT %:    93.5405  MISS %:    6.45948   MPKI: 0.36402
BTB BRANCH_DIRECT_JUMP	ACCESS:      54526  HIT:      54521  MISS:          5
BTB BRANCH_INDIRECT	ACCESS:       9087  HIT:       9086  MISS:          1
BTB BRANCH_CONDITIONAL	ACCESS:     109107  HIT:     109095  MISS:         12
BTB BRANCH_DIRECT_CALL	ACCESS:      54526  HIT:      54521  MISS:          5
BTB BRANCH_INDIRECT_CALL	ACCESS:          0  HIT:          0  MISS:          0
BTB BRANCH_RETURN	ACCESS:      54526  HIT:      36348  MISS:      18178
BTB BRANCH_OTHER ACCESS:           0  HIT:          0  MISS:          0

L2C TOTAL     ACCESS:    6831749  HIT:    6486167  MISS:     345582  HIT %:    94.9415  MISS %:    5.05847   MPKI: 6.91164
L2C LOAD      ACCESS:    4425768  HIT:    4306650  MISS:     119118  HIT %:    97.3085  MISS %:    2.69147   MPKI: 2.38236
L2C DATA LOAD MPKI: 2.372
L2C INSTRUCTION LOAD MPKI: 0.01036
L2C RFO       ACCESS:     296410  HIT:     266985  MISS:      29425  HIT %:    90.0729  MISS %:    9.92713   MPKI: 0.5885
L2C PREFETCH  ACCESS:    1771461  HIT:    1577824  MISS:     193637  HIT %:    89.0691  MISS %:    10.9309   MPKI: 3.87274
AGUS PREFETCH L1 MISS: 0
L2C DATA PREFETCH MPKI: 3.87274
L2C INSTRUCTION PREFETCH MPKI: 0
L2C WRITEBACK ACCESS:     334843  HIT:     334560  MISS:        283  HIT %:    99.9155  MISS %:  0.0845172   MPKI: 0.00566
L2C LOAD TRANSLATION ACCESS:       3267  HIT:        148  MISS:       3119  HIT %:    4.53015  MISS %:    95.4699   MPKI: 0.06238
L2C PREFETCH  REQUESTED:     758716  ISSUED:     758679  USEFUL:     137826  USELESS:      55802
L2C USEFUL LOAD PREFETCHES:     137826 PREFETCH ISSUED TO LOWER LEVEL:     193738  ACCURACY: 71.1404
L2C TIMELY PREFETCHES:     137826 LATE PREFETCHES: 101 DROPPED PREFETCHES: 0
L2C PREFETCHES SAME FILL-ORIGIN LEVEL: 112748 DIFFERENT FILL-ORIGIN LEVEL: 0
L2C AVERAGE MISS LATENCY: 145.685 cycles
L2C RQ	ACCESS:    4725966	FORWARD:          0	MERGED:          0	TO_CACHE:    4725445
L2C WQ	ACCESS:     334843	FORWARD:        954	MERGED:          0	TO_CACHE:     334843
L2C PQ	ACCESS:    1781349	FORWARD:          0	MERGED:       7977	TO_CACHE:    1772939

L2C Instructions Evicting Data 496
L2C Translations Evicting Data 3085
L2C Data Evicting Data 338070
L2C Instructions Evicting Instructions 18
L2C Translations Evicting Instructions 3
L2C Data Evicting Instructions 498
L2C Instructions Evicting Translations 4
L2C Translations Evicting Translations 31
L2C Data Evicting Translations 3094
L2C Dense regions hint from L2: 0
PSCL5 TOTAL     ACCESS:       2194  HIT:       2194  MISS:          0  HIT %:        100  MISS %:          0   MPKI: 0
PSCL5 LOAD TRANSLATION ACCESS:       2194  HIT:       2194  MISS:          0  HIT %:        100  MISS %:          0   MPKI: 0
PSCL5 PREFETCH  REQUESTED:          0  ISSUED:          0  USEFUL:          0  USELESS:          0
PSCL5 USEFUL LOAD PREFETCHES:          0 PREFETCH ISSUED TO LOWER LEVEL:          0  ACCURACY: -nan
PSCL5 TIMELY PREFETCHES:          0 LATE PREFETCHES: 0 DROPPED PREFETCHES: 0
PSCL5 PREFETCHES SAME FILL-ORIGIN LEVEL: 0 DIFFERENT FILL-ORIGIN LEVEL: 0

PSCL4 TOTAL     ACCESS:       2194  HIT:       2194  MISS:          0  HIT %:        100  MISS %:          0   MPKI: 0
PSCL4 LOAD TRANSLATION ACCESS:       2194  HIT:       2194  MISS:          0  HIT %:        100  MISS %:          0   MPKI: 0
PSCL4 PREFETCH  REQUESTED:          0  ISSUED:          0  USEFUL:          0  USELESS:          0
PSCL4 USEFUL LOAD PREFETCHES:          0 PREFETCH ISSUED TO LOWER LEVEL:          0  ACCURACY: -nan
PSCL4 TIMELY PREFETCHES:          0 LATE PREFETCHES: 0 DROPPED PREFETCHES: 0
PSCL4 PREFETCHES SAME FILL-ORIGIN LEVEL: 0 DIFFERENT FILL-ORIGIN LEVEL: 0

PSCL3 TOTAL     ACCESS:       2194  HIT:       2194  MISS:          0  HIT %:        100  MISS %:          0   MPKI: 0
PSCL3 LOAD TRANSLATION ACCESS:       2194  HIT:       2194  MISS:          0  HIT %:        100  MISS %:          0   MPKI: 0
PSCL3 PREFETCH  REQUESTED:          0  ISSUED:          0  USEFUL:          0  USELESS:          0
PSCL3 USEFUL LOAD PREFETCHES:          0 PREFETCH ISSUED TO LOWER LEVEL:          0  ACCURACY: -nan
PSCL3 TIMELY PREFETCHES:          0 LATE PREFETCHES: 0 DROPPED PREFETCHES: 0
PSCL3 PREFETCHES SAME FILL-ORIGIN LEVEL: 0 DIFFERENT FILL-ORIGIN LEVEL: 0

PSCL2 TOTAL     ACCESS:       2194  HIT:       1117  MISS:       1077  HIT %:    50.9116  MISS %:    49.0884   MPKI: 0.02154
PSCL2 LOAD TRANSLATION ACCESS:       2194  HIT:       1117  MISS:       1077  HIT %:    50.9116  MISS %:    49.0884   MPKI: 0.02154
PSCL2 PREFETCH  REQUESTED:          0  ISSUED:          0  USEFUL:          0  USELESS:          0
PSCL2 USEFUL LOAD PREFETCHES:          0 PREFETCH ISSUED TO LOWER LEVEL:          0  ACCURACY: -nan
PSCL2 TIMELY PREFETCHES:          0 LATE PREFETCHES: 0 DROPPED PREFETCHES: 0
PSCL2 PREFETCHES SAME FILL-ORIGIN LEVEL: 0 DIFFERENT FILL-ORIGIN LEVEL: 0

LLC TOTAL     ACCESS:     374780  HIT:     216184  MISS:     158596  HIT %:    57.6829  MISS %:    42.3171   MPKI: 3.17192
LLC LOAD      ACCESS:     119017  HIT:      68227  MISS:      50790  HIT %:    57.3254  MISS %:    42.6746   MPKI: 1.0158
LLC RFO       ACCESS:      29425  HIT:          0  MISS:      29425  HIT %:          0  MISS %:        100   MPKI: 0.5885
LLC PREFETCH  ACCESS:     193738  HIT:     134257  MISS:      59481  HIT %:    69.2982  MISS %:    30.7018   MPKI: 1.18962
AGUS PREFETCH L1 MISS: 0
LLC WRITEBACK ACCESS:      29481  HIT:      11551  MISS:      17930  HIT %:    39.1812  MISS %:    60.8188   MPKI: 0.3586
LLC LOAD TRANSLATION ACCESS:       3119  HIT:       2149  MISS:        970  HIT %:    68.9003  MISS %:    31.0997   MPKI: 0.0194
LLC PREFETCH  REQUESTED:          0  ISSUED:          0  USEFUL:      25349  USELESS:      34180
LLC USEFUL LOAD PREFETCHES:      25349 PREFETCH ISSUED TO LOWER LEVEL:      59481  ACCURACY: 42.617
LLC TIMELY PREFETCHES:      25349 LATE PREFETCHES: 0 DROPPED PREFETCHES: 0
LLC PREFETCHES SAME FILL-ORIGIN LEVEL: 0 DIFFERENT FILL-ORIGIN LEVEL: 0
LLC AVERAGE MISS LATENCY: 251.005 cycles
LLC RQ	ACCESS:     151561	FORWARD:          0	MERGED:          0	TO_CACHE:     151561
LLC WQ	ACCESS:      29481	FORWARD:          0	MERGED:          0	TO_CACHE:      29481
LLC PQ	ACCESS:     193738	FORWARD:          0	MERGED:          0	TO_CACHE:     193738

LLC Dense regions hint to LLC: 0

RAW hits: 124093
Loads Generated: 19592737
Loads sent to L1D: 19468643
Stores Generated: 4053119
Stores sent to L1D: 4053121
Major fault: 0 Minor fault: 4534
Allocated PAGES: 4534
CPU 0 L1D berti prefetcher final stats
3-> Hits: 7162, Late: 11013, Early: 0, Misses: 0
6-> Hits: 1056, Late: 17118, Early: 0, Misses: 0
7-> Hits: 18175, Late: 0, Early: 0, Misses: 0
8-> Hits: 27364, Late: 2431, Early: 0, Misses: 0
e-> Hits: 18174, Late: 0, Early: 0, Misses: 0
12-> Hits: 18175, Late: 0, Early: 0, Misses: 0
17-> Hits: 18174, Late: 0, Early: 0, Misses: 0
18-> Hits: 29639, Late: 0, Early: 0, Misses: 0
19-> Hits: 8560, Late: 0, Early: 0, Misses: 0
1a-> Hits: 5700, Late: 12475, Early: 0, Misses: 0
1e-> Hits: 7643, Late: 3569, Early: 0, Misses: 0
20-> Hits: 23547, Late: 0, Early: 0, Misses: 0
21-> Hits: 31748, Late: 0, Early: 0, Misses: 0
22-> Hits: 18175, Late: 0, Early: 0, Misses: 0
25-> Hits: 5606, Late: 2543, Early: 0, Misses: 0
26-> Hits: 2600, Late: 2224, Early: 0, Misses: 2275
2a-> Hits: 17352, Late: 0, Early: 0, Misses: 0
2b-> Hits: 11927, Late: 0, Early: 0, Misses: 0
30-> Hits: 305, Late: 0, Early: 0, Misses: 0
31-> Hits: 18175, Late: 0, Early: 0, Misses: 0
33-> Hits: 18175, Late: 0, Early: 0, Misses: 0
34-> Hits: 17711, Late: 0, Early: 0, Misses: 0
37-> Hits: 14235, Late: 2665, Early: 0, Misses: 0
38-> Hits: 55, Late: 0, Early: 0, Misses: 0
3a-> Hits: 12653, Late: 1, Early: 0, Misses: 5520
3c-> Hits: 12608, Late: 2415, Early: 0, Misses: 0
3e-> Hits: 4251, Late: 0, Early: 0, Misses: 0
40-> Hits: 44705, Late: 0, Early: 0, Misses: 0
42-> Hits: 11595, Late: 2082, Early: 0, Misses: 0
46-> Hits: 10590, Late: 1151, Early: 0, Misses: 0
47-> Hits: 15030, Late: 0, Early: 0, Misses: 0
48-> Hits: 829, Late: 0, Early: 0, Misses: 0
49-> Hits: 17970, Late: 0, Early: 0, Misses: 0
4b-> Hits: 10613, Late: 0, Early: 0, Misses: 0
4c-> Hits: 604, Late: 17571, Early: 0, Misses: 0
4d-> Hits: 18175, Late: 0, Early: 0, Misses: 0
50-> Hits: 14116, Late: 0, Early: 0, Misses: 0
51-> Hits: 33718, Late: 3, Early: 0, Misses: 208
53-> Hits: 3521, Late: 14654, Early: 0, Misses: 0
58-> Hits: 26438, Late: 0, Early: 0, Misses: 0
59-> Hits: 9355, Late: 26989, Early: 0, Misses: 0
5a-> Hits: 18175, Late: 0, Early: 0, Misses: 0
5c-> Hits: 10816, Late: 0, Early: 0, Misses: 0
5d-> Hits: 5337, Late: 12838, Early: 0, Misses: 0
60-> Hits: 4611, Late: 1362, Early: 0, Misses: 0
62-> Hits: 36106, Late: 0, Early: 0, Misses: 0
66-> Hits: 16448, Late: 0, Early: 0, Misses: 0
67-> Hits: 26358, Late: 2079, Early: 0, Misses: 0
68-> Hits: 18174, Late: 0, Early: 0, Misses: 0
69-> Hits: 18175, Late: 0, Early: 0, Misses: 0
6b-> Hits: 7943, Late: 10232, Early: 0, Misses: 0
6c-> Hits: 13426, Late: 723, Early: 0, Misses: 0
6e-> Hits: 0, Late: 18174, Early: 0, Misses: 0
6f-> Hits: 17919, Late: 0, Early: 0, Misses: 0
70-> Hits: 20234, Late: 0, Early: 0, Misses: 0
72-> Hits: 2444, Late: 0, Early: 0, Misses: 0
73-> Hits: 982, Late: 0, Early: 0, Misses: 0
75-> Hits: 8833, Late: 3943, Early: 0, Misses: 0
77-> Hits: 1528, Late: 16647, Early: 0, Misses: 0
78-> Hits: 36295, Late: 0, Early: 0, Misses: 0
7b-> Hits: 12557, Late: 0, Early: 0, Misses: 65
7c-> Hits: 188, Late: 0, Early: 0, Misses: 0
7e-> Hits: 9054, Late: 0, Early: 0, Misses: 0
81-> Hits: 6607, Late: 11568, Early: 0, Misses: 0
82-> Hits: 36249, Late: 0, Early: 0, Misses: 0
83-> Hits: 23120, Late: 13154, Early: 0, Misses: 0
84-> Hits: 18175, Late: 0, Early: 0, Misses: 0
86-> Hits: 1111, Late: 17064, Early: 0, Misses: 0
87-> Hits: 18175, Late: 0, Early: 0, Misses: 0
8a-> Hits: 20858, Late: 2327, Early: 0, Misses: 0
8b-> Hits: 12688, Late: 2753, Early: 0, Misses: 0
8c-> Hits: 17650, Late: 0, Early: 0, Misses: 0
90-> Hits: 12965, Late: 0, Early: 0, Misses: 0
91-> Hits: 14517, Late: 0, Early: 0, Misses: 70
94-> Hits: 18175, Late: 0, Early: 0, Misses: 0
96-> Hits: 31769, Late: 1969, Early: 0, Misses: 0
9b-> Hits: 36016, Late: 0, Early: 0, Misses: 333
9e-> Hits: 4230, Late: 0, Early: 0, Misses: 0
a0-> Hits: 18174, Late: 0, Early: 0, Misses: 0
a1-> Hits: 23423, Late: 0, Early: 0, Misses: 0
a5-> Hits: 17522, Late: 0, Early: 0, Misses: 0
a6-> Hits: 5901, Late: 30449, Early: 0, Misses: 0
a9-> Hits: 30480, Late: 0, Early: 0, Misses: 394
aa-> Hits: 11197, Late: 0, Early: 0, Misses: 0
ab-> Hits: 15286, Late: 4972, Early: 0, Misses: 0
ac-> Hits: 18175, Late: 0, Early: 0, Misses: 0
b1-> Hits: 9516, Late: 21151, Early: 0, Misses: 0
b2-> Hits: 18175, Late: 0, Early: 0, Misses: 0
b5-> Hits: 14964, Late: 0, Early: 0, Misses: 0
b6-> Hits: 20342, Late: 0, Early: 0, Misses: 0
b7-> Hits: 10478, Late: 4323, Early: 0, Misses: 0
b9-> Hits: 14885, Late: 1554, Early: 0, Misses: 0
bb-> Hits: 6426, Late: 11749, Early: 0, Misses: 0
bc-> Hits: 17916, Late: 0, Early: 0, Misses: 0
bf-> Hits: 12628, Late: 5547, Early: 0, Misses: 0
c0-> Hits: 11645, Late: 3006, Early: 0, Misses: 0
c1-> Hits: 9412, Late: 0, Early: 0, Misses: 0
c6-> Hits: 18175, Late: 0, Early: 0, Misses: 0
c9-> Hits: 22569, Late: 13372, Early: 0, Misses: 408
ca-> Hits: 9332, Late: 0, Early: 0, Misses: 0
cb-> Hits: 18175, Late: 0, Early: 0, Misses: 0
ce-> Hits: 13598, Late: 914, Early: 0, Misses: 0
cf-> Hits: 16584, Late: 13295, Early: 0, Misses: 0
d1-> Hits: 18175, Late: 0, Early: 0, Misses: 0
d3-> Hits: 11666, Late: 2237, Early: 0, Misses: 0
d4-> Hits: 25242, Late: 3179, Early: 0, Misses: 0
d5-> Hits: 18175, Late: 0, Early: 0, Misses: 0
d9-> Hits: 18175, Late: 0, Early: 0, Misses: 0
da-> Hits: 25502, Late: 0, Early: 0, Misses: 117
df-> Hits: 8826, Late: 0, Early: 0, Misses: 0
e1-> Hits: 22547, Late: 13802, Early: 0, Misses: 0
e2-> Hits: 31927, Late: 2291, Early: 0, Misses: 0
e6-> Hits: 18175, Late: 0, Early: 0, Misses: 0
e7-> Hits: 33502, Late: 12113, Early: 0, Misses: 0
ec-> Hits: 34615, Late: 6001, Early: 0, Misses: 0
f0-> Hits: 922, Late: 0, Early: 0, Misses: 9
f4-> Hits: 34306, Late: 2043, Early: 0, Misses: 0
f5-> Hits: 10933, Late: 899, Early: 0, Misses: 0
f7-> Hits: 18175, Late: 0, Early: 0, Misses: 0
f8-> Hits: 18175, Late: 0, Early: 0, Misses: 0
fa-> Hits: 1463, Late: 0, Early: 0, Misses: 8
fc-> Hits: 10896, Late: 0, Early: 0, Misses: 0
fe-> Hits: 21929, Late: 2508, Early: 0, Misses: 0
ff-> Hits: 17005, Late: 1, Early: 0, Misses: 1169
102-> Hits: 12927, Late: 1439, Early: 0, Misses: 0
105-> Hits: 26320, Late: 0, Early: 0, Misses: 0
107-> Hits: 20538, Late: 1646, Early: 0, Misses: 0
109-> Hits: 18175, Late: 0, Early: 0, Misses: 0
10a-> Hits: 18174, Late: 0, Early: 0, Misses: 0
10c-> Hits: 0, Late: 18044, Early: 0, Misses: 0
10d-> Hits: 8964, Late: 997, Early: 0, Misses: 0
10e-> Hits: 30568, Late: 0, Early: 0, Misses: 0
112-> Hits: 17467, Late: 0, Early: 0, Misses: 0
114-> Hits: 18175, Late: 0, Early: 0, Misses: 0
117-> Hits: 17270, Late: 880, Early: 0, Misses: 0
11a-> Hits: 4256, Late: 31993, Early: 0, Misses: 0
11b-> Hits: 10326, Late: 0, Early: 0, Misses: 0
11e-> Hits: 16272, Late: 1902, Early: 0, Misses: 0
11f-> Hits: 4374, Late: 0, Early: 0, Misses: 0
120-> Hits: 14603, Late: 3571, Early: 0, Misses: 0
124-> Hits: 25044, Late: 10947, Early: 0, Misses: 0
128-> Hits: 36349, Late: 0, Early: 0, Misses: 0
129-> Hits: 17437, Late: 0, Early: 0, Misses: 0
12b-> Hits: 18175, Late: 0, Early: 0, Misses: 0
12d-> Hits: 27633, Late: 0, Early: 0, Misses: 0
12f-> Hits: 48, Late: 18127, Early: 0, Misses: 0
132-> Hits: 7774, Late: 10401, Early: 0, Misses: 0
134-> Hits: 6678, Late: 2441, Early: 0, Misses: 0
136-> Hits: 18384, Late: 0, Early: 0, Misses: 0
137-> Hits: 2634, Late: 0, Early: 0, Misses: 0
13a-> Hits: 31706, Late: 0, Early: 0, Misses: 161
13c-> Hits: 6878, Late: 1828, Early: 0, Misses: 0
13d-> Hits: 350, Late: 17825, Early: 0, Misses: 0
13e-> Hits: 2957, Late: 0, Early: 0, Misses: 0
141-> Hits: 18175, Late: 0, Early: 0, Misses: 0
142-> Hits: 95, Late: 18043, Early: 0, Misses: 0
143-> Hits: 33509, Late: 0, Early: 0, Misses: 0
145-> Hits: 5032, Late: 13143, Early: 0, Misses: 0
147-> Hits: 19512, Late: 1864, Early: 0, Misses: 0
14a-> Hits: 9986, Late: 3745, Early: 0, Misses: 0
14c-> Hits: 6594, Late: 1403, Early: 0, Misses: 0
14e-> Hits: 18175, Late: 0, Early: 0, Misses: 0
150-> Hits: 503, Late: 2273, Early: 0, Misses: 0
152-> Hits: 18175, Late: 0, Early: 0, Misses: 0
156-> Hits: 3889, Late: 0, Early: 0, Misses: 0
157-> Hits: 14289, Late: 2116, Early: 0, Misses: 0
15a-> Hits: 18682, Late: 0, Early: 0, Misses: 0
15d-> Hits: 4580, Late: 0, Early: 0, Misses: 0
15f-> Hits: 18175, Late: 0, Early: 0, Misses: 0
160-> Hits: 18175, Late: 0, Early: 0, Misses: 0
163-> Hits: 944, Late: 0, Early: 0, Misses: 0
165-> Hits: 5536, Late: 12639, Early: 0, Misses: 0
167-> Hits: 18175, Late: 0, Early: 0, Misses: 0
168-> Hits: 13571, Late: 4603, Early: 0, Misses: 0
169-> Hits: 18036, Late: 0, Early: 0, Misses: 115
16a-> Hits: 10909, Late: 2448, Early: 0, Misses: 0
16b-> Hits: 17916, Late: 0, Early: 0, Misses: 0
170-> Hits: 18174, Late: 0, Early: 0, Misses: 0
172-> Hits: 17524, Late: 0, Early: 0, Misses: 650
173-> Hits: 7238, Late: 2527, Early: 0, Misses: 0
175-> Hits: 22994, Late: 0, Early: 0, Misses: 0
178-> Hits: 42297, Late: 1433, Early: 0, Misses: 0
17a-> Hits: 5374, Late: 12801, Early: 0, Misses: 0
17b-> Hits: 18175, Late: 0, Early: 0, Misses: 0
17d-> Hits: 18175, Late: 0, Early: 0, Misses: 0
17e-> Hits: 106, Late: 0, Early: 0, Misses: 0
17f-> Hits: 26668, Late: 2989, Early: 0, Misses: 0
180-> Hits: 18226, Late: 0, Early: 0, Misses: 0
183-> Hits: 18075, Late: 0, Early: 0, Misses: 0
185-> Hits: 17586, Late: 0, Early: 0, Misses: 588
186-> Hits: 36164, Late: 0, Early: 0, Misses: 0
187-> Hits: 77, Late: 18098, Early: 0, Misses: 0
189-> Hits: 7156, Late: 0, Early: 0, Misses: 0
18d-> Hits: 34490, Late: 0, Early: 0, Misses: 0
18e-> Hits: 19437, Late: 12369, Early: 0, Misses: 0
18f-> Hits: 18175, Late: 0, Early: 0, Misses: 0
193-> Hits: 9161, Late: 2582, Early: 0, Misses: 0
194-> Hits: 12934, Late: 2250, Early: 0, Misses: 0
196-> Hits: 27621, Late: 0, Early: 0, Misses: 0
198-> Hits: 18174, Late: 0, Early: 0, Misses: 0
199-> Hits: 8143, Late: 1725, Early: 0, Misses: 0
19b-> Hits: 13268, Late: 2124, Early: 0, Misses: 0
19e-> Hits: 5643, Late: 12532, Early: 0, Misses: 0
19f-> Hits: 17846, Late: 0, Early: 0, Misses: 0
1a1-> Hits: 29428, Late: 0, Early: 0, Misses: 0
1a3-> Hits: 7304, Late: 3743, Early: 0, Misses: 0
1a5-> Hits: 18175, Late: 0, Early: 0, Misses: 0
1a7-> Hits: 6718, Late: 0, Early: 0, Misses: 0
1a8-> Hits: 12598, Late: 5577, Early: 0, Misses: 0
1ab-> Hits: 1402, Late: 42, Early: 0, Misses: 0
1b1-> Hits: 587, Late: 17537, Early: 0, Misses: 0
1b6-> Hits: 47239, Late: 0, Early: 0, Misses: 9
1b7-> Hits: 17867, Late: 0, Early: 0, Misses: 0
1b8-> Hits: 13400, Late: 227, Early: 0, Misses: 0
1b9-> Hits: 17812, Late: 0, Early: 0, Misses: 0
1bd-> Hits: 13626, Late: 4548, Early: 0, Misses: 0
1be-> Hits: 18046, Late: 0, Early: 0, Misses: 0
1c3-> Hits: 0, Late: 18175, Early: 0, Misses: 0
1c4-> Hits: 18175, Late: 0, Early: 0, Misses: 0
1c6-> Hits: 14036, Late: 1786, Early: 0, Misses: 0
1c8-> Hits: 12739, Late: 2253, Early: 0, Misses: 0
1ca-> Hits: 34786, Late: 4, Early: 0, Misses: 0
1cb-> Hits: 14146, Late: 2175, Early: 0, Misses: 0
1cc-> Hits: 9342, Late: 0, Early: 0, Misses: 0
1ce-> Hits: 18175, Late: 0, Early: 0, Misses: 0
1d0-> Hits: 10, Late: 18165, Early: 0, Misses: 0
1d3-> Hits: 18175, Late: 0, Early: 0, Misses: 0
1d7-> Hits: 104, Late: 0, Early: 0, Misses: 0
1da-> Hits: 16576, Late: 1582, Early: 0, Misses: 0
1db-> Hits: 18175, Late: 0, Early: 0, Misses: 0
1de-> Hits: 18175, Late: 0, Early: 0, Misses: 0
1e0-> Hits: 321, Late: 17854, Early: 0, Misses: 0
1e1-> Hits: 15892, Late: 2283, Early: 0, Misses: 0
1e4-> Hits: 14130, Late: 2257, Early: 0, Misses: 0
1e5-> Hits: 18121, Late: 0, Early: 0, Misses: 0
1e7-> Hits: 14518, Late: 0, Early: 0, Misses: 0
1e8-> Hits: 0, Late: 18175, Early: 0, Misses: 0
1ea-> Hits: 15365, Late: 0, Early: 0, Misses: 5
1ee-> Hits: 42, Late: 18133, Early: 0, Misses: 0
1f0-> Hits: 12749, Late: 5426, Early: 0, Misses: 0
1f1-> Hits: 1728, Late: 17, Early: 0, Misses: 0
1f2-> Hits: 9569, Late: 4022, Early: 0, Misses: 0
1f6-> Hits: 16521, Late: 0, Early: 0, Misses: 0
1f7-> Hits: 18195, Late: 17842, Early: 0, Misses: 312
1fc-> Hits: 9682, Late: 2223, Early: 0, Misses: 0
1fe-> Hits: 13942, Late: 0, Early: 0, Misses: 0
1ff-> Hits: 716, Late: 33, Early: 0, Misses: 0
201-> Hits: 35348, Late: 5741, Early: 0, Misses: 0
203-> Hits: 18175, Late: 0, Early: 0, Misses: 0
204-> Hits: 87, Late: 18088, Early: 0, Misses: 0
205-> Hits: 18175, Late: 0, Early: 0, Misses: 0
207-> Hits: 30187, Late: 0, Early: 0, Misses: 44
209-> Hits: 4527, Late: 5415, Early: 0, Misses: 0
20a-> Hits: 18175, Late: 0, Early: 0, Misses: 0
20b-> Hits: 18175, Late: 0, Early: 0, Misses: 0
20f-> Hits: 9152, Late: 1924, Early: 0, Misses: 0
213-> Hits: 18175, Late: 0, Early: 0, Misses: 0
214-> Hits: 1495, Late: 113, Early: 0, Misses: 0
215-> Hits: 17655, Late: 56, Early: 0, Misses: 14
21a-> Hits: 882, Late: 17292, Early: 0, Misses: 0
21c-> Hits: 18175, Late: 0, Early: 0, Misses: 0
21d-> Hits: 19553, Late: 2435, Early: 0, Misses: 0
21f-> Hits: 21836, Late: 0, Early: 0, Misses: 5
221-> Hits: 18174, Late: 0, Early: 0, Misses: 0
224-> Hits: 11566, Late: 0, Early: 0, Misses: 0
227-> Hits: 5876, Late: 12298, Early: 0, Misses: 0
229-> Hits: 13509, Late: 1996, Early: 0, Misses: 0
22a-> Hits: 7691, Late: 0, Early: 0, Misses: 0
22b-> Hits: 2714, Late: 17081, Early: 0, Misses: 0
22e-> Hits: 18692, Late: 0, Early: 0, Misses: 0
22f-> Hits: 9258, Late: 0, Early: 0, Misses: 0
230-> Hits: 17296, Late: 0, Early: 0, Misses: 878
234-> Hits: 18175, Late: 0, Early: 0, Misses: 0
235-> Hits: 173, Late: 4402, Early: 0, Misses: 0
239-> Hits: 18173, Late: 0, Early: 0, Misses: 1
23a-> Hits: 17673, Late: 0, Early: 0, Misses: 0
23e-> Hits: 1886, Late: 0, Early: 0, Misses: 2
240-> Hits: 7020, Late: 0, Early: 0, Misses: 0
241-> Hits: 12965, Late: 0, Early: 0, Misses: 1
242-> Hits: 4399, Late: 2235, Early: 0, Misses: 0
243-> Hits: 1399, Late: 16775, Early: 0, Misses: 0
245-> Hits: 16736, Late: 1, Early: 0, Misses: 1438
247-> Hits: 34443, Late: 968, Early: 0, Misses: 0
248-> Hits: 24304, Late: 0, Early: 0, Misses: 2
24a-> Hits: 16476, Late: 0, Early: 0, Misses: 0
24d-> Hits: 6470, Late: 11704, Early: 0, Misses: 0
24f-> Hits: 25204, Late: 0, Early: 0, Misses: 1
251-> Hits: 18175, Late: 0, Early: 0, Misses: 0
253-> Hits: 17508, Late: 0, Early: 0, Misses: 0
254-> Hits: 18175, Late: 0, Early: 0, Misses: 0
256-> Hits: 2160, Late: 16015, Early: 0, Misses: 0
257-> Hits: 18171, Late: 0, Early: 0, Misses: 3
258-> Hits: 2945, Late: 0, Early: 0, Misses: 0
25d-> Hits: 35144, Late: 0, Early: 0, Misses: 0
25f-> Hits: 13766, Late: 2550, Early: 0, Misses: 7
260-> Hits: 18071, Late: 0, Early: 0, Misses: 0
262-> Hits: 12315, Late: 1392, Early: 0, Misses: 0
264-> Hits: 756, Late: 17418, Early: 0, Misses: 0
265-> Hits: 1158, Late: 0, Early: 0, Misses: 2
266-> Hits: 18174, Late: 0, Early: 0, Misses: 0
267-> Hits: 11900, Late: 2261, Early: 0, Misses: 0
269-> Hits: 15311, Late: 2315, Early: 0, Misses: 0
26d-> Hits: 18160, Late: 0, Early: 0, Misses: 14
26e-> Hits: 16041, Late: 4442, Early: 0, Misses: 0
26f-> Hits: 9772, Late: 0, Early: 0, Misses: 3
270-> Hits: 18175, Late: 0, Early: 0, Misses: 0
273-> Hits: 18175, Late: 0, Early: 0, Misses: 0
274-> Hits: 18175, Late: 0, Early: 0, Misses: 0
277-> Hits: 35022, Late: 17180, Early: 0, Misses: 0
27b-> Hits: 1169, Late: 0, Early: 0, Misses: 2
27d-> Hits: 9524, Late: 0, Early: 0, Misses: 0
282-> Hits: 18175, Late: 0, Early: 0, Misses: 0
283-> Hits: 36332, Late: 0, Early: 0, Misses: 17
284-> Hits: 3120, Late: 15055, Early: 0, Misses: 0
285-> Hits: 11207, Late: 1310, Early: 0, Misses: 0
289-> Hits: 17392, Late: 0, Early: 0, Misses: 0
28b-> Hits: 2448, Late: 0, Early: 0, Misses: 0
28f-> Hits: 18175, Late: 0, Early: 0, Misses: 0
290-> Hits: 30194, Late: 4042, Early: 0, Misses: 6
291-> Hits: 17634, Late: 109, Early: 0, Misses: 12
292-> Hits: 15315, Late: 0, Early: 0, Misses: 0
296-> Hits: 14013, Late: 1439, Early: 0, Misses: 0
298-> Hits: 6481, Late: 11693, Early: 0, Misses: 0
29a-> Hits: 16997, Late: 0, Early: 0, Misses: 0
29c-> Hits: 14076, Late: 2253, Early: 0, Misses: 0
29e-> Hits: 5693, Late: 2622, Early: 0, Misses: 0
29f-> Hits: 122, Late: 51, Early: 0, Misses: 2
2a5-> Hits: 33168, Late: 5, Early: 0, Misses: 0
2ab-> Hits: 16745, Late: 1249, Early: 0, Misses: 0
2ac-> Hits: 31368, Late: 2430, Early: 0, Misses: 0
2ad-> Hits: 5142, Late: 13135, Early: 0, Misses: 2
2b2-> Hits: 49836, Late: 2172, Early: 0, Misses: 0
2b3-> Hits: 28867, Late: 0, Early: 0, Misses: 1
2b8-> Hits: 9436, Late: 2362, Early: 0, Misses: 0
2b9-> Hits: 1, Late: 18174, Early: 0, Misses: 0
2ba-> Hits: 9844, Late: 2003, Early: 0, Misses: 0
2bd-> Hits: 3387, Late: 0, Early: 0, Misses: 0
2be-> Hits: 18148, Late: 0, Early: 0, Misses: 26
2bf-> Hits: 18067, Late: 0, Early: 0, Misses: 0
2c4-> Hits: 3393, Late: 19370, Early: 0, Misses: 0
2c5-> Hits: 39086, Late: 15423, Early: 0, Misses: 14
2c9-> Hits: 5631, Late: 12544, Early: 0, Misses: 0
2ca-> Hits: 18175, Late: 0, Early: 0, Misses: 0
2cb-> Hits: 1516, Late: 0, Early: 0, Misses: 0
2cd-> Hits: 18117, Late: 0, Early: 0, Misses: 57
2cf-> Hits: 9875, Late: 2367, Early: 0, Misses: 0
2d0-> Hits: 5826, Late: 12348, Early: 0, Misses: 0
2d2-> Hits: 13970, Late: 2428, Early: 0, Misses: 0
2d6-> Hits: 13005, Late: 0, Early: 0, Misses: 30
2d7-> Hits: 29471, Late: 1657, Early: 0, Misses: 0
2da-> Hits: 18068, Late: 0, Early: 0, Misses: 0
2db-> Hits: 7993, Late: 10291, Early: 0, Misses: 0
2dd-> Hits: 18023, Late: 0, Early: 0, Misses: 0
2e0-> Hits: 1448, Late: 0, Early: 0, Misses: 0
2e2-> Hits: 1457, Late: 16718, Early: 0, Misses: 0
2e3-> Hits: 18175, Late: 0, Early: 0, Misses: 0
2e5-> Hits: 4515, Late: 2226, Early: 0, Misses: 0
2e6-> Hits: 8597, Late: 18146, Early: 0, Misses: 0
2e7-> Hits: 402, Late: 0, Early: 0, Misses: 0
2ea-> Hits: 12493, Late: 0, Early: 0, Misses: 2
2eb-> Hits: 5040, Late: 5147, Early: 0, Misses: 0
2ec-> Hits: 5521, Late: 12654, Early: 0, Misses: 0
2ee-> Hits: 18236, Late: 0, Early: 0, Misses: 2
2ef-> Hits: 18175, Late: 0, Early: 0, Misses: 0
2f2-> Hits: 5714, Late: 12460, Early: 0, Misses: 0
2f3-> Hits: 18156, Late: 0, Early: 0, Misses: 0
2f5-> Hits: 18284, Late: 0, Early: 0, Misses: 1
2f6-> Hits: 1829, Late: 201, Early: 0, Misses: 0
2f7-> Hits: 10861, Late: 3025, Early: 0, Misses: 0
2fd-> Hits: 849, Late: 0, Early: 0, Misses: 0
2fe-> Hits: 13376, Late: 0, Early: 0, Misses: 0
301-> Hits: 24239, Late: 2754, Early: 0, Misses: 0
303-> Hits: 5939, Late: 0, Early: 0, Misses: 0
305-> Hits: 6447, Late: 11727, Early: 0, Misses: 0
308-> Hits: 475, Late: 17700, Early: 0, Misses: 0
30a-> Hits: 30509, Late: 2072, Early: 0, Misses: 0
30d-> Hits: 11475, Late: 2442, Early: 0, Misses: 0
311-> Hits: 9268, Late: 0, Early: 0, Misses: 0
313-> Hits: 9048, Late: 0, Early: 0, Misses: 0
316-> Hits: 5551, Late: 12624, Early: 0, Misses: 0
317-> Hits: 34858, Late: 0, Early: 0, Misses: 0
318-> Hits: 18175, Late: 0, Early: 0, Misses: 0
31b-> Hits: 9485, Late: 19710, Early: 0, Misses: 0
320-> Hits: 18087, Late: 0, Early: 0, Misses: 0
321-> Hits: 5151, Late: 0, Early: 0, Misses: 14
324-> Hits: 17785, Late: 0, Early: 0, Misses: 0
325-> Hits: 18175, Late: 0, Early: 0, Misses: 0
326-> Hits: 5770, Late: 12404, Early: 0, Misses: 0
328-> Hits: 7573, Late: 1737, Early: 0, Misses: 0
32b-> Hits: 5608, Late: 3329, Early: 0, Misses: 0
331-> Hits: 2877, Late: 0, Early: 0, Misses: 0
332-> Hits: 9231, Late: 0, Early: 0, Misses: 2
337-> Hits: 18175, Late: 0, Early: 0, Misses: 0
339-> Hits: 4971, Late: 13204, Early: 0, Misses: 0
33a-> Hits: 23587, Late: 12762, Early: 0, Misses: 0
33d-> Hits: 18175, Late: 0, Early: 0, Misses: 0
33e-> Hits: 9043, Late: 2334, Early: 0, Misses: 0
33f-> Hits: 3609, Late: 2854, Early: 0, Misses: 0
343-> Hits: 12473, Late: 1, Early: 0, Misses: 5701
344-> Hits: 13414, Late: 0, Early: 0, Misses: 0
345-> Hits: 1347, Late: 0, Early: 0, Misses: 0
348-> Hits: 4112, Late: 14063, Early: 0, Misses: 0
34c-> Hits: 14513, Late: 1, Early: 0, Misses: 3661
34d-> Hits: 18175, Late: 0, Early: 0, Misses: 0
34f-> Hits: 18043, Late: 0, Early: 0, Misses: 0
351-> Hits: 10722, Late: 0, Early: 0, Misses: 0
355-> Hits: 18175, Late: 0, Early: 0, Misses: 0
356-> Hits: 39949, Late: 2601, Early: 0, Misses: 0
358-> Hits: 18175, Late: 0, Early: 0, Misses: 0
35d-> Hits: 18175, Late: 0, Early: 0, Misses: 0
35f-> Hits: 18175, Late: 0, Early: 0, Misses: 0
367-> Hits: 18166, Late: 0, Early: 0, Misses: 0
368-> Hits: 18175, Late: 0, Early: 0, Misses: 0
369-> Hits: 13354, Late: 3061, Early: 0, Misses: 0
36f-> Hits: 18175, Late: 0, Early: 0, Misses: 0
370-> Hits: 6266, Late: 0, Early: 0, Misses: 0
371-> Hits: 18175, Late: 0, Early: 0, Misses: 0
374-> Hits: 10845, Late: 0, Early: 0, Misses: 0
378-> Hits: 9738, Late: 1092, Early: 0, Misses: 0
37a-> Hits: 673, Late: 0, Early: 0, Misses: 0
37b-> Hits: 17860, Late: 0, Early: 0, Misses: 0
37d-> Hits: 11644, Late: 0, Early: 0, Misses: 0
380-> Hits: 18175, Late: 0, Early: 0, Misses: 0
385-> Hits: 20699, Late: 14524, Early: 0, Misses: 0
387-> Hits: 8895, Late: 3263, Early: 0, Misses: 0
388-> Hits: 0, Late: 18174, Early: 0, Misses: 0
389-> Hits: 36350, Late: 0, Early: 0, Misses: 0
38a-> Hits: 6687, Late: 0, Early: 0, Misses: 0
38e-> Hits: 763, Late: 17411, Early: 0, Misses: 0
38f-> Hits: 5989, Late: 12186, Early: 0, Misses: 0
391-> Hits: 8933, Late: 0, Early: 0, Misses: 0
393-> Hits: 18071, Late: 0, Early: 0, Misses: 0
394-> Hits: 18175, Late: 0, Early: 0, Misses: 0
396-> Hits: 36350, Late: 0, Early: 0, Misses: 0
398-> Hits: 16701, Late: 0, Early: 0, Misses: 0
39d-> Hits: 8250, Late: 9925, Early: 0, Misses: 0
39f-> Hits: 18175, Late: 0, Early: 0, Misses: 0
3a2-> Hits: 2223, Late: 18119, Early: 0, Misses: 0
3a3-> Hits: 13542, Late: 2417, Early: 0, Misses: 0
3a5-> Hits: 18174, Late: 0, Early: 0, Misses: 0
3a7-> Hits: 10498, Late: 18894, Early: 0, Misses: 0
3a9-> Hits: 16557, Late: 0, Early: 0, Misses: 0
3b0-> Hits: 2795, Late: 0, Early: 0, Misses: 0
3b1-> Hits: 20447, Late: 1994, Early: 0, Misses: 0
3b6-> Hits: 33938, Late: 0, Early: 0, Misses: 0
3b9-> Hits: 8543, Late: 12473, Early: 0, Misses: 0
3bb-> Hits: 1216, Late: 16959, Early: 0, Misses: 0
3be-> Hits: 11807, Late: 2890, Early: 0, Misses: 0
3bf-> Hits: 35144, Late: 0, Early: 0, Misses: 0
3c0-> Hits: 4665, Late: 14207, Early: 0, Misses: 0
3c6-> Hits: 0, Late: 18174, Early: 0, Misses: 0
3c8-> Hits: 6302, Late: 11873, Early: 0, Misses: 0
3cc-> Hits: 5547, Late: 2365, Early: 0, Misses: 0
3d1-> Hits: 26004, Late: 0, Early: 0, Misses: 0
3d2-> Hits: 18175, Late: 0, Early: 0, Misses: 0
3d3-> Hits: 27105, Late: 0, Early: 0, Misses: 0
3d6-> Hits: 6181, Late: 2224, Early: 0, Misses: 0
3d8-> Hits: 15942, Late: 1584, Early: 0, Misses: 0
3d9-> Hits: 13164, Late: 12075, Early: 0, Misses: 0
3da-> Hits: 17765, Late: 0, Early: 0, Misses: 0
3db-> Hits: 30183, Late: 912, Early: 0, Misses: 0
3dd-> Hits: 18174, Late: 0, Early: 0, Misses: 0
3df-> Hits: 7203, Late: 2314, Early: 0, Misses: 0
3e1-> Hits: 1466, Late: 0, Early: 0, Misses: 0
3e4-> Hits: 18175, Late: 0, Early: 0, Misses: 0
3e6-> Hits: 10441, Late: 16411, Early: 0, Misses: 0
3ea-> Hits: 10539, Late: 0, Early: 0, Misses: 0
3eb-> Hits: 323, Late: 0, Early: 0, Misses: 0
3ec-> Hits: 24530, Late: 3939, Early: 0, Misses: 0
3ee-> Hits: 36350, Late: 0, Early: 0, Misses: 0
3ef-> Hits: 7078, Late: 11097, Early: 0, Misses: 0
3f0-> Hits: 5748, Late: 12427, Early: 0, Misses: 0
3f1-> Hits: 16630, Late: 1489, Early: 0, Misses: 0
3f4-> Hits: 11727, Late: 2824, Early: 0, Misses: 0
3f9-> Hits: 11254, Late: 0, Early: 0, Misses: 0
3fd-> Hits: 16780, Late: 0, Early: 0, Misses: 0
3fe-> Hits: 26173, Late: 0, Early: 0, Misses: 0
400-> Hits: 4609, Late: 13565, Early: 0, Misses: 0
403-> Hits: 6622, Late: 11553, Early: 0, Misses: 0
404-> Hits: 18175, Late: 0, Early: 0, Misses: 0
407-> Hits: 24180, Late: 0, Early: 0, Misses: 0
408-> Hits: 8316, Late: 3105, Early: 0, Misses: 0
40a-> Hits: 18175, Late: 0, Early: 0, Misses: 0
40c-> Hits: 14876, Late: 18645, Early: 0, Misses: 0
411-> Hits: 44758, Late: 4681, Early: 0, Misses: 0
413-> Hits: 8061, Late: 0, Early: 0, Misses: 0
417-> Hits: 6823, Late: 0, Early: 0, Misses: 0
418-> Hits: 36349, Late: 0, Early: 0, Misses: 0
41b-> Hits: 5899, Late: 12276, Early: 0, Misses: 0
41d-> Hits: 18016, Late: 0, Early: 0, Misses: 0
41f-> Hits: 865, Late: 17310, Early: 0, Misses: 0
420-> Hits: 19696, Late: 5852, Early: 0, Misses: 0
421-> Hits: 17966, Late: 0, Early: 0, Misses: 0
424-> Hits: 18140, Late: 0, Early: 0, Misses: 0
425-> Hits: 9039, Late: 0, Early: 0, Misses: 0
42c-> Hits: 7016, Late: 1596, Early: 0, Misses: 0
42e-> Hits: 26319, Late: 3587, Early: 0, Misses: 0
42f-> Hits: 15899, Late: 0, Early: 0, Misses: 0
432-> Hits: 18175, Late: 0, Early: 0, Misses: 0
433-> Hits: 18175, Late: 0, Early: 0, Misses: 0
435-> Hits: 11400, Late: 13808, Early: 0, Misses: 0
437-> Hits: 18121, Late: 0, Early: 0, Misses: 0
43a-> Hits: 11222, Late: 1321, Early: 0, Misses: 0
43b-> Hits: 14587, Late: 2713, Early: 0, Misses: 0
43c-> Hits: 18175, Late: 0, Early: 0, Misses: 0
43e-> Hits: 17353, Late: 0, Early: 0, Misses: 0
43f-> Hits: 4013, Late: 0, Early: 0, Misses: 0
440-> Hits: 18175, Late: 18175, Early: 0, Misses: 0
445-> Hits: 4529, Late: 13646, Early: 0, Misses: 0
446-> Hits: 19412, Late: 0, Early: 0, Misses: 0
447-> Hits: 14207, Late: 1329, Early: 0, Misses: 0
449-> Hits: 5218, Late: 0, Early: 0, Misses: 0
44b-> Hits: 9442, Late: 0, Early: 0, Misses: 0
44c-> Hits: 14173, Late: 1888, Early: 0, Misses: 0
44e-> Hits: 20, Late: 18071, Early: 0, Misses: 0
450-> Hits: 8796, Late: 2683, Early: 0, Misses: 0
452-> Hits: 18014, Late: 0, Early: 0, Misses: 0
453-> Hits: 18175, Late: 0, Early: 0, Misses: 0
456-> Hits: 8677, Late: 0, Early: 0, Misses: 0
457-> Hits: 10155, Late: 0, Early: 0, Misses: 0
45c-> Hits: 17696, Late: 341, Early: 0, Misses: 0
45e-> Hits: 2, Late: 17499, Early: 0, Misses: 674
460-> Hits: 252, Late: 0, Early: 0, Misses: 0
462-> Hits: 13631, Late: 2951, Early: 0, Misses: 0
463-> Hits: 34397, Late: 1952, Early: 0, Misses: 0
469-> Hits: 4937, Late: 0, Early: 0, Misses: 0
46c-> Hits: 46, Late: 18129, Early: 0, Misses: 0
46e-> Hits: 15820, Late: 0, Early: 0, Misses: 0
471-> Hits: 8141, Late: 1015, Early: 0, Misses: 0
476-> Hits: 12743, Late: 0, Early: 0, Misses: 0
477-> Hits: 17863, Late: 17766, Early: 0, Misses: 0
47a-> Hits: 24787, Late: 1733, Early: 0, Misses: 0
47e-> Hits: 5054, Late: 13121, Early: 0, Misses: 0
480-> Hits: 161, Late: 18013, Early: 0, Misses: 0
482-> Hits: 1170, Late: 4559, Early: 0, Misses: 54
483-> Hits: 25391, Late: 0, Early: 0, Misses: 0
485-> Hits: 3833, Late: 2371, Early: 0, Misses: 0
488-> Hits: 5335, Late: 12840, Early: 0, Misses: 0
48c-> Hits: 18175, Late: 0, Early: 0, Misses: 0
48f-> Hits: 11309, Late: 0, Early: 0, Misses: 0
491-> Hits: 31629, Late: 0, Early: 0, Misses: 0
493-> Hits: 16477, Late: 0, Early: 0, Misses: 0
496-> Hits: 8540, Late: 9635, Early: 0, Misses: 0
49b-> Hits: 1455, Late: 0, Early: 0, Misses: 0
49d-> Hits: 18175, Late: 0, Early: 0, Misses: 0
49e-> Hits: 6740, Late: 2446, Early: 0, Misses: 0
4a0-> Hits: 6930, Late: 1694, Early: 0, Misses: 0
4a5-> Hits: 32446, Late: 2119, Early: 0, Misses: 0
4a9-> Hits: 8477, Late: 0, Early: 0, Misses: 0
4aa-> Hits: 18175, Late: 0, Early: 0, Misses: 0
4ae-> Hits: 18174, Late: 0, Early: 0, Misses: 0
4af-> Hits: 17870, Late: 0, Early: 0, Misses: 0
4b1-> Hits: 24108, Late: 12242, Early: 0, Misses: 0
4b2-> Hits: 739, Late: 0, Early: 0, Misses: 0
4b6-> Hits: 29956, Late: 5688, Early: 0, Misses: 15321
4b8-> Hits: 18175, Late: 0, Early: 0, Misses: 0
4be-> Hits: 4582, Late: 2635, Early: 0, Misses: 0
4bf-> Hits: 20364, Late: 1674, Early: 0, Misses: 1190
4c3-> Hits: 15714, Late: 1148, Early: 0, Misses: 0
4c5-> Hits: 17399, Late: 0, Early: 0, Misses: 0
4c8-> Hits: 18015, Late: 2, Early: 0, Misses: 0
4c9-> Hits: 5521, Late: 12654, Early: 0, Misses: 0
4cd-> Hits: 16440, Late: 0, Early: 0, Misses: 0
4ce-> Hits: 23566, Late: 2303, Early: 0, Misses: 0
4d0-> Hits: 18175, Late: 0, Early: 0, Misses: 0
4d2-> Hits: 1299, Late: 16876, Early: 0, Misses: 0
4d7-> Hits: 7686, Late: 0, Early: 0, Misses: 0
4d9-> Hits: 23930, Late: 0, Early: 0, Misses: 0
4de-> Hits: 17698, Late: 13988, Early: 0, Misses: 0
4df-> Hits: 17969, Late: 0, Early: 0, Misses: 0
4e0-> Hits: 2232, Late: 1607, Early: 0, Misses: 671
4e3-> Hits: 24087, Late: 5459, Early: 0, Misses: 0
4e8-> Hits: 16264, Late: 0, Early: 0, Misses: 0
4ea-> Hits: 10773, Late: 0, Early: 0, Misses: 0
4eb-> Hits: 16619, Late: 0, Early: 0, Misses: 0
4ed-> Hits: 8355, Late: 0, Early: 0, Misses: 0
4ef-> Hits: 3143, Late: 2343, Early: 0, Misses: 1782
4f2-> Hits: 20594, Late: 13490, Early: 0, Misses: 0
4f7-> Hits: 25316, Late: 3052, Early: 0, Misses: 0
4f9-> Hits: 15184, Late: 0, Early: 0, Misses: 0
4fc-> Hits: 30767, Late: 0, Early: 0, Misses: 0
502-> Hits: 26273, Late: 0, Early: 0, Misses: 0
504-> Hits: 17957, Late: 0, Early: 0, Misses: 218
507-> Hits: 2362, Late: 15813, Early: 0, Misses: 0
509-> Hits: 36347, Late: 0, Early: 0, Misses: 0
50a-> Hits: 5981, Late: 12194, Early: 0, Misses: 0
50e-> Hits: 4649, Late: 0, Early: 0, Misses: 0
510-> Hits: 8081, Late: 3722, Early: 0, Misses: 0
511-> Hits: 11159, Late: 2679, Early: 0, Misses: 0
513-> Hits: 13639, Late: 581, Early: 0, Misses: 0
516-> Hits: 18175, Late: 0, Early: 0, Misses: 0
518-> Hits: 5060, Late: 0, Early: 0, Misses: 0
51c-> Hits: 18175, Late: 0, Early: 0, Misses: 0
51e-> Hits: 36350, Late: 0, Early: 0, Misses: 0
520-> Hits: 14309, Late: 1388, Early: 0, Misses: 0
523-> Hits: 18175, Late: 0, Early: 0, Misses: 0
525-> Hits: 14721, Late: 2006, Early: 0, Misses: 0
527-> Hits: 2, Late: 18173, Early: 0, Misses: 0
52c-> Hits: 18201, Late: 18149, Early: 0, Misses: 0
52d-> Hits: 15215, Late: 2352, Early: 0, Misses: 0
530-> Hits: 18124, Late: 0, Early: 0, Misses: 0
533-> Hits: 17110, Late: 0, Early: 0, Misses: 0
534-> Hits: 16582, Late: 1472, Early: 0, Misses: 0
536-> Hits: 66, Late: 18109, Early: 0, Misses: 0
539-> Hits: 18175, Late: 0, Early: 0, Misses: 0
53b-> Hits: 25563, Late: 4401, Early: 0, Misses: 0
53c-> Hits: 262, Late: 4477, Early: 0, Misses: 0
53e-> Hits: 18175, Late: 0, Early: 0, Misses: 0
540-> Hits: 18174, Late: 0, Early: 0, Misses: 0
542-> Hits: 0, Late: 18175, Early: 0, Misses: 0
545-> Hits: 8654, Late: 2246, Early: 0, Misses: 0
546-> Hits: 18175, Late: 0, Early: 0, Misses: 0
547-> Hits: 34350, Late: 2000, Early: 0, Misses: 0
54a-> Hits: 12950, Late: 19344, Early: 0, Misses: 0
54b-> Hits: 12362, Late: 0, Early: 0, Misses: 28
550-> Hits: 15626, Late: 4773, Early: 0, Misses: 0
551-> Hits: 1143, Late: 1770, Early: 0, Misses: 0
553-> Hits: 17863, Late: 0, Early: 0, Misses: 0
557-> Hits: 8639, Late: 1818, Early: 0, Misses: 0
558-> Hits: 31205, Late: 0, Early: 0, Misses: 0
55b-> Hits: 194, Late: 17981, Early: 0, Misses: 0
55c-> Hits: 10159, Late: 2454, Early: 0, Misses: 9
55d-> Hits: 17312, Late: 0, Early: 0, Misses: 0
55e-> Hits: 17641, Late: 534, Early: 0, Misses: 0
561-> Hits: 1247, Late: 2540, Early: 0, Misses: 0
562-> Hits: 733, Late: 17441, Early: 0, Misses: 0
565-> Hits: 13843, Late: 0, Early: 0, Misses: 0
567-> Hits: 18175, Late: 0, Early: 0, Misses: 0
568-> Hits: 18755, Late: 0, Early: 0, Misses: 0
56b-> Hits: 33606, Late: 0, Early: 0, Misses: 3
56e-> Hits: 64, Late: 18111, Early: 0, Misses: 0
570-> Hits: 22301, Late: 13032, Early: 0, Misses: 0
573-> Hits: 9925, Late: 19637, Early: 0, Misses: 0
57a-> Hits: 10478, Late: 0, Early: 0, Misses: 0
57b-> Hits: 0, Late: 18175, Early: 0, Misses: 0
57c-> Hits: 18017, Late: 0, Early: 0, Misses: 0
57e-> Hits: 3911, Late: 0, Early: 0, Misses: 0
583-> Hits: 5143, Late: 17280, Early: 0, Misses: 0
585-> Hits: 480, Late: 4167, Early: 0, Misses: 0
588-> Hits: 5175, Late: 0, Early: 0, Misses: 0
58a-> Hits: 18175, Late: 18175, Early: 0, Misses: 0
58d-> Hits: 13245, Late: 14978, Early: 0, Misses: 4
591-> Hits: 18113, Late: 0, Early: 0, Misses: 0
597-> Hits: 18175, Late: 0, Early: 0, Misses: 0
598-> Hits: 458, Late: 2186, Early: 0, Misses: 0
59a-> Hits: 14918, Late: 0, Early: 0, Misses: 0
59e-> Hits: 0, Late: 18175, Early: 0, Misses: 0
59f-> Hits: 25251, Late: 0, Early: 0, Misses: 0
5a0-> Hits: 18175, Late: 0, Early: 0, Misses: 0
5a4-> Hits: 527, Late: 17647, Early: 0, Misses: 0
5a6-> Hits: 10197, Late: 0, Early: 0, Misses: 0
5a9-> Hits: 14523, Late: 4726, Early: 0, Misses: 0
5ac-> Hits: 18121, Late: 0, Early: 0, Misses: 0
5ae-> Hits: 0, Late: 18175, Early: 0, Misses: 0
5af-> Hits: 12845, Late: 0, Early: 0, Misses: 0
5b1-> Hits: 18175, Late: 0, Early: 0, Misses: 0
5b3-> Hits: 18171, Late: 0, Early: 0, Misses: 0
5b7-> Hits: 929, Late: 17245, Early: 0, Misses: 0
5b8-> Hits: 18175, Late: 18175, Early: 0, Misses: 0
5b9-> Hits: 18175, Late: 0, Early: 0, Misses: 0
5bc-> Hits: 18174, Late: 0, Early: 0, Misses: 0
5c0-> Hits: 546, Late: 17629, Early: 0, Misses: 0
5c1-> Hits: 18117, Late: 0, Early: 0, Misses: 0
5c3-> Hits: 18175, Late: 0, Early: 0, Misses: 0
5c4-> Hits: 31944, Late: 1720, Early: 0, Misses: 0
5ca-> Hits: 0, Late: 18175, Early: 0, Misses: 0
5cd-> Hits: 6006, Late: 0, Early: 0, Misses: 0
5cf-> Hits: 1694, Late: 16481, Early: 0, Misses: 0
5d0-> Hits: 35212, Late: 437, Early: 0, Misses: 0
5d1-> Hits: 18137, Late: 0, Early: 0, Misses: 0
5d3-> Hits: 18175, Late: 0, Early: 0, Misses: 0
5d5-> Hits: 15743, Late: 11885, Early: 0, Misses: 0
5d8-> Hits: 18121, Late: 0, Early: 0, Misses: 0
5da-> Hits: 28873, Late: 2344, Early: 0, Misses: 0
5dc-> Hits: 18175, Late: 0, Early: 0, Misses: 0
5de-> Hits: 0, Late: 18175, Early: 0, Misses: 0
5e2-> Hits: 18175, Late: 0, Early: 0, Misses: 0
5e4-> Hits: 4916, Late: 31434, Early: 0, Misses: 0
5e9-> Hits: 15869, Late: 0, Early: 0, Misses: 0
5ea-> Hits: 31075, Late: 1, Early: 0, Misses: 0
5ef-> Hits: 30014, Late: 20539, Early: 0, Misses: 0
5f0-> Hits: 18175, Late: 0, Early: 0, Misses: 0
5f1-> Hits: 18175, Late: 0, Early: 0, Misses: 0
5f4-> Hits: 475, Late: 17700, Early: 0, Misses: 0
5f6-> Hits: 34213, Late: 0, Early: 0, Misses: 0
5fe-> Hits: 18175, Late: 0, Early: 0, Misses: 0
5ff-> Hits: 30196, Late: 0, Early: 0, Misses: 0
601-> Hits: 8927, Late: 1, Early: 0, Misses: 0
602-> Hits: 18009, Late: 0, Early: 0, Misses: 0
607-> Hits: 1, Late: 18174, Early: 0, Misses: 0
609-> Hits: 3399, Late: 14776, Early: 0, Misses: 0
60b-> Hits: 18175, Late: 0, Early: 0, Misses: 0
60e-> Hits: 2548, Late: 0, Early: 0, Misses: 0
60f-> Hits: 33, Late: 18142, Early: 0, Misses: 0
611-> Hits: 16887, Late: 0, Early: 0, Misses: 0
613-> Hits: 6210, Late: 11965, Early: 0, Misses: 0
618-> Hits: 18175, Late: 0, Early: 0, Misses: 0
619-> Hits: 0, Late: 18175, Early: 0, Misses: 0
61c-> Hits: 35471, Late: 1, Early: 0, Misses: 0
61f-> Hits: 183, Late: 4488, Early: 0, Misses: 0
621-> Hits: 44866, Late: 9454, Early: 0, Misses: 0
623-> Hits: 10028, Late: 3471, Early: 0, Misses: 0
626-> Hits: 1543, Late: 0, Early: 0, Misses: 0
62a-> Hits: 18175, Late: 0, Early: 0, Misses: 0
62b-> Hits: 6900, Late: 1725, Early: 0, Misses: 0
62d-> Hits: 36351, Late: 18174, Early: 0, Misses: 0
630-> Hits: 8842, Late: 0, Early: 0, Misses: 0
633-> Hits: 324, Late: 2299, Early: 0, Misses: 0
634-> Hits: 13289, Late: 1, Early: 0, Misses: 0
63a-> Hits: 18175, Late: 0, Early: 0, Misses: 0
63c-> Hits: 6269, Late: 11906, Early: 0, Misses: 0
63d-> Hits: 16900, Late: 0, Early: 0, Misses: 0
63e-> Hits: 6, Late: 18169, Early: 0, Misses: 0
640-> Hits: 30837, Late: 5513, Early: 0, Misses: 0
641-> Hits: 25031, Late: 5308, Early: 0, Misses: 0
644-> Hits: 396, Late: 2365, Early: 0, Misses: 0
647-> Hits: 17257, Late: 0, Early: 0, Misses: 0
64b-> Hits: 18175, Late: 0, Early: 0, Misses: 0
64d-> Hits: 18175, Late: 0, Early: 0, Misses: 0
64e-> Hits: 16731, Late: 0, Early: 0, Misses: 1444
64f-> Hits: 47085, Late: 1423, Early: 0, Misses: 0
654-> Hits: 23867, Late: 0, Early: 0, Misses: 0
656-> Hits: 7, Late: 18168, Early: 0, Misses: 0
659-> Hits: 1077, Late: 17098, Early: 0, Misses: 0
65b-> Hits: 0, Late: 18175, Early: 0, Misses: 0
65c-> Hits: 6889, Late: 11286, Early: 0, Misses: 0
65e-> Hits: 1967, Late: 0, Early: 0, Misses: 0
660-> Hits: 18175, Late: 0, Early: 0, Misses: 0
661-> Hits: 30928, Late: 2072, Early: 0, Misses: 0
665-> Hits: 82, Late: 4490, Early: 0, Misses: 0
666-> Hits: 5929, Late: 12246, Early: 0, Misses: 0
668-> Hits: 18175, Late: 0, Early: 0, Misses: 0
66a-> Hits: 0, Late: 18175, Early: 0, Misses: 0
66c-> Hits: 11423, Late: 0, Early: 0, Misses: 0
66f-> Hits: 18056, Late: 0, Early: 0, Misses: 0
671-> Hits: 25519, Late: 10831, Early: 0, Misses: 0
674-> Hits: 21840, Late: 1571, Early: 0, Misses: 0
676-> Hits: 13783, Late: 2607, Early: 0, Misses: 0
677-> Hits: 18075, Late: 0, Early: 0, Misses: 0
678-> Hits: 767, Late: 2468, Early: 0, Misses: 0
679-> Hits: 12880, Late: 1065, Early: 0, Misses: 0
67c-> Hits: 9376, Late: 0, Early: 0, Misses: 0
67e-> Hits: 18175, Late: 18175, Early: 0, Misses: 0
67f-> Hits: 330, Late: 0, Early: 0, Misses: 0
681-> Hits: 10315, Late: 10413, Early: 0, Misses: 0
682-> Hits: 18173, Late: 0, Early: 0, Misses: 0
684-> Hits: 1491, Late: 16684, Early: 0, Misses: 0
686-> Hits: 8188, Late: 2915, Early: 0, Misses: 0
689-> Hits: 4563, Late: 2512, Early: 0, Misses: 0
68b-> Hits: 17114, Late: 0, Early: 0, Misses: 0
68d-> Hits: 27204, Late: 1, Early: 0, Misses: 0
68e-> Hits: 6084, Late: 30266, Early: 0, Misses: 0
695-> Hits: 6017, Late: 12158, Early: 0, Misses: 0
696-> Hits: 7128, Late: 0, Early: 0, Misses: 0
697-> Hits: 15783, Late: 1, Early: 0, Misses: 2391
698-> Hits: 0, Late: 18175, Early: 0, Misses: 0
69a-> Hits: 9219, Late: 2671, Early: 0, Misses: 0
69c-> Hits: 18175, Late: 0, Early: 0, Misses: 0
69d-> Hits: 44, Late: 18131, Early: 0, Misses: 0
6a5-> Hits: 17038, Late: 0, Early: 0, Misses: 0
6a7-> Hits: 0, Late: 18175, Early: 0, Misses: 0
6a8-> Hits: 18171, Late: 0, Early: 0, Misses: 0
6aa-> Hits: 5930, Late: 0, Early: 0, Misses: 0
6ac-> Hits: 59, Late: 18116, Early: 0, Misses: 0
6b3-> Hits: 197, Late: 17978, Early: 0, Misses: 0
6b5-> Hits: 0, Late: 18175, Early: 0, Misses: 0
6b7-> Hits: 58959, Late: 0, Early: 0, Misses: 2534
6b8-> Hits: 13125, Late: 2803, Early: 0, Misses: 0
6bb-> Hits: 751, Late: 17424, Early: 0, Misses: 0
6be-> Hits: 8695, Late: 0, Early: 0, Misses: 0
6c0-> Hits: 12624, Late: 5551, Early: 0, Misses: 0
6c3-> Hits: 18031, Late: 0, Early: 0, Misses: 0
6c4-> Hits: 10469, Late: 0, Early: 0, Misses: 0
6c5-> Hits: 0, Late: 18175, Early: 0, Misses: 0
6c6-> Hits: 928, Late: 17247, Early: 0, Misses: 0
6ca-> Hits: 17967, Late: 0, Early: 0, Misses: 0
6cb-> Hits: 18340, Late: 20348, Early: 0, Misses: 15837
6cc-> Hits: 11455, Late: 0, Early: 0, Misses: 0
6cd-> Hits: 9867, Late: 0, Early: 0, Misses: 0
6d0-> Hits: 18121, Late: 0, Early: 0, Misses: 0
6d3-> Hits: 7552, Late: 1611, Early: 0, Misses: 0
6d5-> Hits: 387, Late: 18175, Early: 0, Misses: 0
6d9-> Hits: 61, Late: 18114, Early: 0, Misses: 0
6da-> Hits: 15820, Late: 17992, Early: 0, Misses: 0
6dc-> Hits: 4663, Late: 13512, Early: 0, Misses: 0
6de-> Hits: 53592, Late: 0, Early: 0, Misses: 0
6df-> Hits: 18175, Late: 0, Early: 0, Misses: 0
6e1-> Hits: 11048, Late: 2370, Early: 0, Misses: 0
6e3-> Hits: 10071, Late: 0, Early: 0, Misses: 0
6e4-> Hits: 4422, Late: 16952, Early: 0, Misses: 7
6e8-> Hits: 18175, Late: 0, Early: 0, Misses: 0
6eb-> Hits: 4870, Late: 13305, Early: 0, Misses: 0
6ed-> Hits: 9075, Late: 547, Early: 0, Misses: 0
6ef-> Hits: 18345, Late: 2337, Early: 0, Misses: 2083
6f0-> Hits: 18175, Late: 0, Early: 0, Misses: 0
6f1-> Hits: 11361, Late: 3228, Early: 0, Misses: 0
6f5-> Hits: 34898, Late: 0, Early: 0, Misses: 0
6f8-> Hits: 18175, Late: 0, Early: 0, Misses: 0
6ff-> Hits: 12656, Late: 5228, Early: 0, Misses: 0
701-> Hits: 15954, Late: 0, Early: 0, Misses: 0
702-> Hits: 15535, Late: 0, Early: 0, Misses: 0
703-> Hits: 18175, Late: 0, Early: 0, Misses: 0
704-> Hits: 14755, Late: 2310, Early: 0, Misses: 0
708-> Hits: 36226, Late: 0, Early: 0, Misses: 0
70a-> Hits: 1531, Late: 3836, Early: 0, Misses: 0
70b-> Hits: 6677, Late: 0, Early: 0, Misses: 0
70d-> Hits: 18175, Late: 0, Early: 0, Misses: 0
711-> Hits: 15066, Late: 0, Early: 0, Misses: 0
713-> Hits: 10227, Late: 1079, Early: 0, Misses: 0
716-> Hits: 14854, Late: 1868, Early: 0, Misses: 0
718-> Hits: 13032, Late: 0, Early: 0, Misses: 0
71a-> Hits: 18175, Late: 0, Early: 0, Misses: 0
71b-> Hits: 18174, Late: 1, Early: 0, Misses: 0
71e-> Hits: 12483, Late: 5692, Early: 0, Misses: 0
720-> Hits: 4628, Late: 13547, Early: 0, Misses: 0
725-> Hits: 35643, Late: 0, Early: 0, Misses: 0
727-> Hits: 24651, Late: 3583, Early: 0, Misses: 99
72a-> Hits: 6176, Late: 11999, Early: 0, Misses: 0
72c-> Hits: 15708, Late: 1400, Early: 0, Misses: 0
731-> Hits: 18109, Late: 0, Early: 0, Misses: 0
734-> Hits: 15503, Late: 0, Early: 0, Misses: 0
736-> Hits: 18175, Late: 0, Early: 0, Misses: 0
738-> Hits: 17916, Late: 0, Early: 0, Misses: 0
739-> Hits: 8496, Late: 9679, Early: 0, Misses: 0
73b-> Hits: 4446, Late: 13729, Early: 0, Misses: 0
73d-> Hits: 12641, Late: 5534, Early: 0, Misses: 0
73e-> Hits: 8296, Late: 2439, Early: 0, Misses: 0
742-> Hits: 26036, Late: 0, Early: 0, Misses: 0
746-> Hits: 1339, Late: 0, Early: 0, Misses: 7
747-> Hits: 9867, Late: 1785, Early: 0, Misses: 0
748-> Hits: 6406, Late: 0, Early: 0, Misses: 0
74c-> Hits: 14547, Late: 2278, Early: 0, Misses: 0
74d-> Hits: 18175, Late: 0, Early: 0, Misses: 0
74f-> Hits: 18175, Late: 0, Early: 0, Misses: 0
750-> Hits: 5805, Late: 12370, Early: 0, Misses: 0
751-> Hits: 18174, Late: 0, Early: 0, Misses: 0
753-> Hits: 18175, Late: 0, Early: 0, Misses: 0
754-> Hits: 18175, Late: 0, Early: 0, Misses: 0
756-> Hits: 11076, Late: 3104, Early: 0, Misses: 0
75b-> Hits: 12097, Late: 2303, Early: 0, Misses: 0
75c-> Hits: 12822, Late: 5353, Early: 0, Misses: 0
760-> Hits: 18161, Late: 1, Early: 0, Misses: 13
762-> Hits: 16369, Late: 0, Early: 0, Misses: 0
764-> Hits: 18175, Late: 0, Early: 0, Misses: 0
765-> Hits: 15172, Late: 0, Early: 0, Misses: 3003
769-> Hits: 5705, Late: 12470, Early: 0, Misses: 0
76f-> Hits: 6683, Late: 2117, Early: 0, Misses: 0
770-> Hits: 5985, Late: 12098, Early: 0, Misses: 0
772-> Hits: 33146, Late: 0, Early: 0, Misses: 0
773-> Hits: 18175, Late: 0, Early: 0, Misses: 0
777-> Hits: 2625, Late: 0, Early: 0, Misses: 0
77a-> Hits: 6729, Late: 0, Early: 0, Misses: 0
77b-> Hits: 16481, Late: 1681, Early: 0, Misses: 13
77c-> Hits: 31458, Late: 650, Early: 0, Misses: 0
77f-> Hits: 7988, Late: 10187, Early: 0, Misses: 0
781-> Hits: 2885, Late: 0, Early: 0, Misses: 0
783-> Hits: 6575, Late: 0, Early: 0, Misses: 0
785-> Hits: 10921, Late: 2851, Early: 0, Misses: 0
787-> Hits: 11271, Late: 0, Early: 0, Misses: 0
789-> Hits: 14769, Late: 1417, Early: 0, Misses: 0
78f-> Hits: 42499, Late: 2027, Early: 0, Misses: 0
790-> Hits: 18148, Late: 0, Early: 0, Misses: 27
791-> Hits: 14393, Late: 2650, Early: 0, Misses: 1132
794-> Hits: 7476, Late: 10699, Early: 0, Misses: 0
798-> Hits: 18024, Late: 0, Early: 0, Misses: 0
799-> Hits: 5647, Late: 3468, Early: 0, Misses: 0
79c-> Hits: 16072, Late: 0, Early: 0, Misses: 0
79d-> Hits: 14530, Late: 0, Early: 0, Misses: 0
79e-> Hits: 16847, Late: 863, Early: 0, Misses: 0
7a4-> Hits: 10813, Late: 0, Early: 0, Misses: 0
7a5-> Hits: 34495, Late: 1855, Early: 0, Misses: 0
7a6-> Hits: 18175, Late: 0, Early: 0, Misses: 0
7a7-> Hits: 739, Late: 149, Early: 0, Misses: 0
7a9-> Hits: 5091, Late: 0, Early: 0, Misses: 0
7ac-> Hits: 6166, Late: 30184, Early: 0, Misses: 0
7b2-> Hits: 6434, Late: 3387, Early: 0, Misses: 0
7b7-> Hits: 9943, Late: 0, Early: 0, Misses: 0
7ba-> Hits: 39187, Late: 2163, Early: 0, Misses: 0
7bd-> Hits: 9707, Late: 0, Early: 0, Misses: 73
7bf-> Hits: 18175, Late: 0, Early: 0, Misses: 0
7c4-> Hits: 14438, Late: 2171, Early: 0, Misses: 408
7c5-> Hits: 18175, Late: 0, Early: 0, Misses: 0
7cc-> Hits: 18175, Late: 0, Early: 0, Misses: 0
7cd-> Hits: 6425, Late: 0, Early: 0, Misses: 0
7d2-> Hits: 0, Late: 18175, Early: 0, Misses: 0
7d3-> Hits: 12927, Late: 5248, Early: 0, Misses: 0
7d5-> Hits: 17971, Late: 0, Early: 0, Misses: 0
7d8-> Hits: 0, Late: 18175, Early: 0, Misses: 0
7da-> Hits: 36350, Late: 0, Early: 0, Misses: 0
7db-> Hits: 85, Late: 18090, Early: 0, Misses: 0
7dc-> Hits: 13221, Late: 0, Early: 0, Misses: 0
7dd-> Hits: 18070, Late: 0, Early: 0, Misses: 0
7e0-> Hits: 8425, Late: 3229, Early: 0, Misses: 0
7e7-> Hits: 18175, Late: 0, Early: 0, Misses: 0
7e8-> Hits: 18175, Late: 0, Early: 0, Misses: 0
7eb-> Hits: 3231, Late: 18364, Early: 0, Misses: 0
7ec-> Hits: 17089, Late: 0, Early: 0, Misses: 0
7f1-> Hits: 18175, Late: 0, Early: 0, Misses: 0
7f2-> Hits: 14760, Late: 0, Early: 0, Misses: 3415
7f4-> Hits: 18175, Late: 0, Early: 0, Misses: 0
7f5-> Hits: 6994, Late: 2310, Early: 0, Misses: 502
7f7-> Hits: 18175, Late: 0, Early: 0, Misses: 0
7f9-> Hits: 316, Late: 17859, Early: 0, Misses: 0
7fd-> Hits: 18175, Late: 0, Early: 0, Misses: 0
804-> Hits: 18175, Late: 0, Early: 0, Misses: 0
807-> Hits: 18175, Late: 0, Early: 0, Misses: 0
808-> Hits: 18169, Late: 6, Early: 0, Misses: 0
80c-> Hits: 2523, Late: 3479, Early: 0, Misses: 0
80d-> Hits: 18175, Late: 0, Early: 0, Misses: 0
810-> Hits: 9134, Late: 0, Early: 0, Misses: 0
813-> Hits: 11999, Late: 0, Early: 0, Misses: 0
818-> Hits: 13150, Late: 1631, Early: 0, Misses: 0
81a-> Hits: 17696, Late: 0, Early: 0, Misses: 0
81c-> Hits: 18070, Late: 0, Early: 0, Misses: 0
81d-> Hits: 18175, Late: 0, Early: 0, Misses: 0
81e-> Hits: 34690, Late: 0, Early: 0, Misses: 6
822-> Hits: 17702, Late: 0, Early: 0, Misses: 0
829-> Hits: 22367, Late: 0, Early: 0, Misses: 0
82c-> Hits: 17716, Late: 0, Early: 0, Misses: 0
82f-> Hits: 18021, Late: 0, Early: 0, Misses: 0
831-> Hits: 5819, Late: 2681, Early: 0, Misses: 0
834-> Hits: 577, Late: 0, Early: 0, Misses: 0
835-> Hits: 18174, Late: 0, Early: 0, Misses: 0
836-> Hits: 15180, Late: 1132, Early: 0, Misses: 0
838-> Hits: 36262, Late: 1, Early: 0, Misses: 36
839-> Hits: 18175, Late: 0, Early: 0, Misses: 0
841-> Hits: 19572, Late: 1, Early: 0, Misses: 0
84a-> Hits: 36104, Late: 17905, Early: 0, Misses: 0
84f-> Hits: 18174, Late: 1, Early: 0, Misses: 0
851-> Hits: 16452, Late: 0, Early: 0, Misses: 0
856-> Hits: 12295, Late: 1662, Early: 0, Misses: 0
857-> Hits: 18175, Late: 0, Early: 0, Misses: 0
85b-> Hits: 13175, Late: 2169, Early: 0, Misses: 0
85f-> Hits: 17348, Late: 0, Early: 0, Misses: 0
860-> Hits: 8648, Late: 0, Early: 0, Misses: 381
862-> Hits: 1843, Late: 0, Early: 0, Misses: 0
869-> Hits: 18175, Late: 0, Early: 0, Misses: 0
86a-> Hits: 13883, Late: 2285, Early: 0, Misses: 0
86c-> Hits: 17912, Late: 0, Early: 0, Misses: 0
86f-> Hits: 18175, Late: 0, Early: 0, Misses: 0
873-> Hits: 18175, Late: 0, Early: 0, Misses: 0
876-> Hits: 21266, Late: 0, Early: 0, Misses: 1
877-> Hits: 18174, Late: 0, Early: 0, Misses: 0
87e-> Hits: 18175, Late: 0, Early: 0, Misses: 0
87f-> Hits: 19258, Late: 17092, Early: 0, Misses: 0
886-> Hits: 4080, Late: 0, Early: 0, Misses: 0
889-> Hits: 11787, Late: 2481, Early: 0, Misses: 0
88a-> Hits: 18175, Late: 0, Early: 0, Misses: 0
88b-> Hits: 13036, Late: 308, Early: 0, Misses: 0
88c-> Hits: 25000, Late: 0, Early: 0, Misses: 0
890-> Hits: 6014, Late: 0, Early: 0, Misses: 0
891-> Hits: 32910, Late: 338, Early: 0, Misses: 0
898-> Hits: 31851, Late: 1238, Early: 0, Misses: 0
89c-> Hits: 18175, Late: 0, Early: 0, Misses: 0
89d-> Hits: 14000, Late: 1819, Early: 0, Misses: 0
89e-> Hits: 18174, Late: 0, Early: 0, Misses: 0
8a2-> Hits: 2274, Late: 0, Early: 0, Misses: 0
8a5-> Hits: 15551, Late: 2263, Early: 0, Misses: 0
8ab-> Hits: 14728, Late: 2244, Early: 0, Misses: 0
8ac-> Hits: 16506, Late: 1610, Early: 0, Misses: 0
8b0-> Hits: 24075, Late: 0, Early: 0, Misses: 0
8b1-> Hits: 18175, Late: 0, Early: 0, Misses: 0
8b3-> Hits: 15950, Late: 2225, Early: 0, Misses: 0
8b5-> Hits: 3474, Late: 2246, Early: 0, Misses: 0
8b8-> Hits: 14551, Late: 416, Early: 0, Misses: 0
8ba-> Hits: 15179, Late: 16881, Early: 0, Misses: 0
8c0-> Hits: 366, Late: 17809, Early: 0, Misses: 0
8c2-> Hits: 36349, Late: 0, Early: 0, Misses: 0
8c3-> Hits: 4063, Late: 0, Early: 0, Misses: 0
8c4-> Hits: 943, Late: 1979, Early: 0, Misses: 0
8c5-> Hits: 18175, Late: 0, Early: 0, Misses: 0
8c9-> Hits: 17176, Late: 0, Early: 0, Misses: 0
8ca-> Hits: 18174, Late: 0, Early: 0, Misses: 0
8ce-> Hits: 10373, Late: 0, Early: 0, Misses: 218
8d1-> Hits: 1887, Late: 16288, Early: 0, Misses: 0
8d5-> Hits: 18175, Late: 0, Early: 0, Misses: 0
8d6-> Hits: 18403, Late: 17635, Early: 0, Misses: 0
8d7-> Hits: 18121, Late: 0, Early: 0, Misses: 0
8da-> Hits: 3474, Late: 0, Early: 0, Misses: 0
8db-> Hits: 22554, Late: 5557, Early: 0, Misses: 0
8df-> Hits: 2538, Late: 0, Early: 0, Misses: 0
8e4-> Hits: 71409, Late: 17074, Early: 0, Misses: 18
8e6-> Hits: 2254, Late: 253, Early: 0, Misses: 0
8e9-> Hits: 4231, Late: 0, Early: 0, Misses: 0
8ed-> Hits: 18175, Late: 0, Early: 0, Misses: 0
8ee-> Hits: 6718, Late: 11457, Early: 0, Misses: 0
8f1-> Hits: 18174, Late: 0, Early: 0, Misses: 0
8f5-> Hits: 17237, Late: 0, Early: 0, Misses: 0
8fa-> Hits: 19741, Late: 3, Early: 0, Misses: 0
8fd-> Hits: 2359, Late: 15816, Early: 0, Misses: 0
900-> Hits: 17983, Late: 0, Early: 0, Misses: 0
902-> Hits: 18174, Late: 0, Early: 0, Misses: 0
905-> Hits: 592, Late: 17583, Early: 0, Misses: 0
906-> Hits: 1039, Late: 3652, Early: 0, Misses: 0
90a-> Hits: 14026, Late: 2278, Early: 0, Misses: 0
90b-> Hits: 14985, Late: 0, Early: 0, Misses: 0
90f-> Hits: 18175, Late: 0, Early: 0, Misses: 0
910-> Hits: 42493, Late: 0, Early: 0, Misses: 2048
912-> Hits: 10540, Late: 0, Early: 0, Misses: 0
915-> Hits: 15485, Late: 1, Early: 0, Misses: 2689
918-> Hits: 18280, Late: 17966, Early: 0, Misses: 0
919-> Hits: 18175, Late: 0, Early: 0, Misses: 0
91a-> Hits: 18069, Late: 0, Early: 0, Misses: 0
91c-> Hits: 35433, Late: 0, Early: 0, Misses: 0
91e-> Hits: 18175, Late: 0, Early: 0, Misses: 0
923-> Hits: 18121, Late: 0, Early: 0, Misses: 0
926-> Hits: 11344, Late: 1816, Early: 0, Misses: 0
927-> Hits: 18175, Late: 0, Early: 0, Misses: 0
929-> Hits: 29062, Late: 0, Early: 0, Misses: 0
930-> Hits: 36029, Late: 3142, Early: 0, Misses: 0
936-> Hits: 18174, Late: 0, Early: 0, Misses: 0
938-> Hits: 7420, Late: 10755, Early: 0, Misses: 0
939-> Hits: 18175, Late: 0, Early: 0, Misses: 0
93a-> Hits: 18175, Late: 0, Early: 0, Misses: 0
93c-> Hits: 16099, Late: 1948, Early: 0, Misses: 128
93d-> Hits: 10776, Late: 2418, Early: 0, Misses: 0
93e-> Hits: 2008, Late: 0, Early: 0, Misses: 0
93f-> Hits: 20674, Late: 2349, Early: 0, Misses: 0
946-> Hits: 18175, Late: 0, Early: 0, Misses: 0
947-> Hits: 18174, Late: 1, Early: 0, Misses: 0
94e-> Hits: 12494, Late: 0, Early: 0, Misses: 0
94f-> Hits: 24279, Late: 12017, Early: 0, Misses: 0
952-> Hits: 3902, Late: 96, Early: 0, Misses: 1
954-> Hits: 5028, Late: 0, Early: 0, Misses: 0
956-> Hits: 4909, Late: 0, Early: 0, Misses: 0
957-> Hits: 17954, Late: 0, Early: 0, Misses: 0
959-> Hits: 10213, Late: 2332, Early: 0, Misses: 0
962-> Hits: 33279, Late: 2273, Early: 0, Misses: 0
965-> Hits: 26522, Late: 3307, Early: 0, Misses: 0
966-> Hits: 11538, Late: 0, Early: 0, Misses: 0
967-> Hits: 18175, Late: 0, Early: 0, Misses: 0
968-> Hits: 18175, Late: 0, Early: 0, Misses: 0
969-> Hits: 6351, Late: 0, Early: 0, Misses: 0
96a-> Hits: 18174, Late: 0, Early: 0, Misses: 0
970-> Hits: 15031, Late: 0, Early: 0, Misses: 0
971-> Hits: 11307, Late: 1241, Early: 0, Misses: 0
97c-> Hits: 18175, Late: 0, Early: 0, Misses: 0
97e-> Hits: 13385, Late: 0, Early: 0, Misses: 0
97f-> Hits: 11435, Late: 0, Early: 0, Misses: 0
981-> Hits: 13582, Late: 2364, Early: 0, Misses: 0
985-> Hits: 18174, Late: 0, Early: 0, Misses: 0
987-> Hits: 18992, Late: 15183, Early: 0, Misses: 0
98c-> Hits: 9393, Late: 0, Early: 0, Misses: 0
98f-> Hits: 30636, Late: 2021, Early: 0, Misses: 0
[...]
c45-> Hits: 28936, Late: 0, Early: 0, Misses: 0
c48-> Hits: 0, Late: 18174, Early: 0, Misses: 0
c49-> Hits: 18175, Late: 0, Early: 0, Misses: 0
c4a-> Hits: 18609, Late: 17687, Early: 0, Misses: 0
c4b-> Hits: 18175, Late: 0, Early: 0, Misses: 0
c4f-> Hits: 12267, Late: 2532, Early: 0, Misses: 0
c53-> Hits: 9099, Late: 0, Early: 0, Misses: 0
c55-> Hits: 18584, Late: 17766, Early: 0, Misses: 0
c57-> Hits: 6, Late: 18168, Early: 0, Misses: 0
c5b-> Hits: 12960, Late: 3056, Early: 0, Misses: 0
c5c-> Hits: 18125, Late: 0, Early: 0, Misses: 0
c5e-> Hits: 17817, Late: 0, Early: 0, Misses: 0
c65-> Hits: 10931, Late: 0, Early: 0, Misses: 0
c66-> Hits: 95, Late: 18079, Early: 0, Misses: 0
c67-> Hits: 18175, Late: 0, Early: 0, Misses: 0
c6b-> Hits: 17865, Late: 0, Early: 0, Misses: 0
c6c-> Hits: 291, Late: 17883, Early: 0, Misses: 0
c6d-> Hits: 25897, Late: 10453, Early: 0, Misses: 0
c70-> Hits: 18175, Late: 0, Early: 0, Misses: 0
c72-> Hits: 11149, Late: 2334, Early: 0, Misses: 0
c74-> Hits: 18175, Late: 0, Early: 0, Misses: 0
c7c-> Hits: 18175, Late: 0, Early: 0, Misses: 0
c7e-> Hits: 18175, Late: 0, Early: 0, Misses: 0
c7f-> Hits: 18582, Late: 17623, Early: 0, Misses: 0
c81-> Hits: 18175, Late: 0, Early: 0, Misses: 0
c84-> Hits: 5346, Late: 12829, Early: 0, Misses: 0
c86-> Hits: 16539, Late: 0, Early: 0, Misses: 30
c89-> Hits: 6837, Late: 0, Early: 0, Misses: 0
c8a-> Hits: 18175, Late: 0, Early: 0, Misses: 0
c8e-> Hits: 15959, Late: 20526, Early: 0, Misses: 0
c8f-> Hits: 35372, Late: 0, Early: 0, Misses: 0
c93-> Hits: 18125, Late: 0, Early: 0, Misses: 0
c97-> Hits: 18102, Late: 0, Early: 0, Misses: 0
c9c-> Hits: 17969, Late: 0, Early: 0, Misses: 0
c9d-> Hits: 18335, Late: 18014, Early: 0, Misses: 0
ca0-> Hits: 6134, Late: 2335, Early: 0, Misses: 0
ca2-> Hits: 18174, Late: 0, Early: 0, Misses: 0
ca4-> Hits: 18175, Late: 0, Early: 0, Misses: 0
ca7-> Hits: 18143, Late: 0, Early: 0, Misses: 0
cac-> Hits: 17903, Late: 0, Early: 0, Misses: 271
caf-> Hits: 9014, Late: 1042, Early: 0, Misses: 0
cb1-> Hits: 17916, Late: 0, Early: 0, Misses: 0
cb4-> Hits: 6788, Late: 18159, Early: 0, Misses: 1
cb8-> Hits: 18175, Late: 0, Early: 0, Misses: 0
cb9-> Hits: 14992, Late: 0, Early: 0, Misses: 0
cba-> Hits: 17924, Late: 0, Early: 0, Misses: 237
cbc-> Hits: 3916, Late: 14259, Early: 0, Misses: 0
cbd-> Hits: 14867, Late: 0, Early: 0, Misses: 0
cc1-> Hits: 6502, Late: 0, Early: 0, Misses: 0
cc2-> Hits: 24, Late: 16444, Early: 0, Misses: 1706
cc6-> Hits: 24302, Late: 12048, Early: 0, Misses: 0
cc7-> Hits: 18175, Late: 0, Early: 0, Misses: 0
cc9-> Hits: 9513, Late: 0, Early: 0, Misses: 0
ccf-> Hits: 16276, Late: 0, Early: 0, Misses: 0
cd1-> Hits: 11440, Late: 0, Early: 0, Misses: 2
cd3-> Hits: 12711, Late: 0, Early: 0, Misses: 0
cd4-> Hits: 26145, Late: 10205, Early: 0, Misses: 0
cd8-> Hits: 9669, Late: 3830, Early: 0, Misses: 0
cd9-> Hits: 2689, Late: 18174, Early: 0, Misses: 0
cdc-> Hits: 18175, Late: 0, Early: 0, Misses: 0
cdd-> Hits: 17347, Late: 0, Early: 0, Misses: 0
cde-> Hits: 8225, Late: 1710, Early: 0, Misses: 0
ce5-> Hits: 16676, Late: 0, Early: 0, Misses: 0
ce7-> Hits: 4750, Late: 0, Early: 0, Misses: 0
cea-> Hits: 18175, Late: 0, Early: 0, Misses: 0
cec-> Hits: 16577, Late: 0, Early: 0, Misses: 0
cef-> Hits: 5573, Late: 12602, Early: 0, Misses: 0
cf1-> Hits: 12135, Late: 0, Early: 0, Misses: 0
cf4-> Hits: 22225, Late: 6084, Early: 0, Misses: 0
cf7-> Hits: 5697, Late: 0, Early: 0, Misses: 91
cfa-> Hits: 16965, Late: 0, Early: 0, Misses: 0
cff-> Hits: 36382, Late: 9486, Early: 0, Misses: 8656
d02-> Hits: 12186, Late: 2036, Early: 0, Misses: 0
d05-> Hits: 14630, Late: 0, Early: 0, Misses: 0
d07-> Hits: 19149, Late: 0, Early: 0, Misses: 0
d08-> Hits: 17757, Late: 0, Early: 0, Misses: 0
d0c-> Hits: 1261, Late: 16914, Early: 0, Misses: 0
d0e-> Hits: 15101, Late: 0, Early: 0, Misses: 118
d0f-> Hits: 6381, Late: 11794, Early: 0, Misses: 0
d11-> Hits: 12876, Late: 0, Early: 0, Misses: 0
d14-> Hits: 28921, Late: 2299, Early: 0, Misses: 0
d15-> Hits: 18175, Late: 0, Early: 0, Misses: 0
d16-> Hits: 55, Late: 3828, Early: 0, Misses: 14291
d19-> Hits: 4675, Late: 13500, Early: 0, Misses: 0
d1e-> Hits: 36245, Late: 0, Early: 0, Misses: 0
d1f-> Hits: 9484, Late: 0, Early: 0, Misses: 0
d22-> Hits: 17932, Late: 0, Early: 0, Misses: 0
d24-> Hits: 6569, Late: 11606, Early: 0, Misses: 0
d27-> Hits: 4830, Late: 2225, Early: 0, Misses: 0
d29-> Hits: 12030, Late: 2749, Early: 0, Misses: 4
d2b-> Hits: 18175, Late: 0, Early: 0, Misses: 0
d2c-> Hits: 12020, Late: 883, Early: 0, Misses: 0
d2d-> Hits: 17911, Late: 0, Early: 0, Misses: 0
d2f-> Hits: 17602, Late: 0, Early: 0, Misses: 0
d30-> Hits: 17764, Late: 0, Early: 0, Misses: 0
d31-> Hits: 51, Late: 682, Early: 0, Misses: 17441
d32-> Hits: 915, Late: 0, Early: 0, Misses: 0
d33-> Hits: 8483, Late: 0, Early: 0, Misses: 0
d34-> Hits: 18175, Late: 0, Early: 0, Misses: 0
d37-> Hits: 19795, Late: 16555, Early: 0, Misses: 0
d38-> Hits: 8282, Late: 9893, Early: 0, Misses: 0
d3c-> Hits: 582, Late: 0, Early: 0, Misses: 0
d3d-> Hits: 7617, Late: 2630, Early: 0, Misses: 0
d40-> Hits: 18071, Late: 0, Early: 0, Misses: 0
d41-> Hits: 23065, Late: 12292, Early: 0, Misses: 0
d43-> Hits: 12426, Late: 0, Early: 0, Misses: 10
d48-> Hits: 10722, Late: 0, Early: 0, Misses: 0
d49-> Hits: 18175, Late: 0, Early: 0, Misses: 0
d4a-> Hits: 18175, Late: 0, Early: 0, Misses: 0
d4b-> Hits: 62, Late: 249, Early: 0, Misses: 17863
d4d-> Hits: 18175, Late: 0, Early: 0, Misses: 0
d50-> Hits: 6009, Late: 12166, Early: 0, Misses: 0
d52-> Hits: 12006, Late: 0, Early: 0, Misses: 0
d53-> Hits: 18175, Late: 0, Early: 0, Misses: 0
d55-> Hits: 5669, Late: 3549, Early: 0, Misses: 0
d56-> Hits: 16465, Late: 0, Early: 0, Misses: 0
d5c-> Hits: 18175, Late: 0, Early: 0, Misses: 0
d5e-> Hits: 18175, Late: 0, Early: 0, Misses: 0
d63-> Hits: 18639, Late: 0, Early: 0, Misses: 0
d64-> Hits: 24289, Late: 0, Early: 0, Misses: 198
d65-> Hits: 12183, Late: 0, Early: 0, Misses: 0
d68-> Hits: 18174, Late: 1, Early: 0, Misses: 0
d69-> Hits: 413, Late: 17762, Early: 0, Misses: 0
d6c-> Hits: 18175, Late: 0, Early: 0, Misses: 0
d6d-> Hits: 18175, Late: 0, Early: 0, Misses: 0
d6e-> Hits: 11387, Late: 2605, Early: 0, Misses: 0
d6f-> Hits: 160, Late: 0, Early: 0, Misses: 1
d70-> Hits: 18071, Late: 18175, Early: 0, Misses: 0
d74-> Hits: 7014, Late: 0, Early: 0, Misses: 0
d76-> Hits: 11742, Late: 0, Early: 0, Misses: 0
d79-> Hits: 18175, Late: 0, Early: 0, Misses: 0
d7b-> Hits: 18175, Late: 0, Early: 0, Misses: 0
d7c-> Hits: 1417, Late: 16758, Early: 0, Misses: 0
d7e-> Hits: 17, Late: 17998, Early: 0, Misses: 0
d82-> Hits: 36350, Late: 0, Early: 0, Misses: 0
d87-> Hits: 16987, Late: 0, Early: 0, Misses: 0
d8a-> Hits: 9572, Late: 1671, Early: 0, Misses: 0
d8e-> Hits: 6, Late: 17447, Early: 0, Misses: 722
d8f-> Hits: 19817, Late: 0, Early: 0, Misses: 0
d94-> Hits: 39050, Late: 0, Early: 0, Misses: 0
d98-> Hits: 18175, Late: 0, Early: 0, Misses: 0
d9c-> Hits: 23167, Late: 30945, Early: 0, Misses: 0
d9d-> Hits: 17659, Late: 0, Early: 0, Misses: 0
da1-> Hits: 28120, Late: 2721, Early: 0, Misses: 0
da5-> Hits: 17662, Late: 0, Early: 0, Misses: 0
da7-> Hits: 403, Late: 17772, Early: 0, Misses: 0
dab-> Hits: 18175, Late: 0, Early: 0, Misses: 0
daf-> Hits: 3523, Late: 0, Early: 0, Misses: 0
db2-> Hits: 19032, Late: 4463, Early: 0, Misses: 79
db3-> Hits: 4900, Late: 13275, Early: 0, Misses: 0
db4-> Hits: 9140, Late: 0, Early: 0, Misses: 0
db8-> Hits: 9468, Late: 0, Early: 0, Misses: 0
dbd-> Hits: 27244, Late: 2641, Early: 0, Misses: 0
dcb-> Hits: 31352, Late: 0, Early: 0, Misses: 0
dcd-> Hits: 6680, Late: 2497, Early: 0, Misses: 0
dcf-> Hits: 14390, Late: 2389, Early: 0, Misses: 0
dd4-> Hits: 11944, Late: 0, Early: 0, Misses: 0
dd6-> Hits: 4425, Late: 0, Early: 0, Misses: 0
dd8-> Hits: 18071, Late: 0, Early: 0, Misses: 0
dd9-> Hits: 13557, Late: 2019, Early: 0, Misses: 0
ddc-> Hits: 7993, Late: 0, Early: 0, Misses: 0
dde-> Hits: 29712, Late: 1288, Early: 0, Misses: 0
de3-> Hits: 1682, Late: 16493, Early: 0, Misses: 0
de5-> Hits: 17195, Late: 0, Early: 0, Misses: 0
de8-> Hits: 7850, Late: 0, Early: 0, Misses: 0
de9-> Hits: 17193, Late: 0, Early: 0, Misses: 0
dea-> Hits: 17971, Late: 0, Early: 0, Misses: 0
dec-> Hits: 11076, Late: 0, Early: 0, Misses: 71
ded-> Hits: 4433, Late: 13742, Early: 0, Misses: 0
df2-> Hits: 22650, Late: 2511, Early: 0, Misses: 0
df6-> Hits: 32113, Late: 0, Early: 0, Misses: 0
df7-> Hits: 15810, Late: 1077, Early: 0, Misses: 0
dfb-> Hits: 21919, Late: 9832, Early: 0, Misses: 0
e00-> Hits: 1883, Late: 0, Early: 0, Misses: 0
e05-> Hits: 7281, Late: 1830, Early: 0, Misses: 0
e06-> Hits: 2060, Late: 16115, Early: 0, Misses: 0
e0a-> Hits: 18175, Late: 0, Early: 0, Misses: 0
e0d-> Hits: 16860, Late: 0, Early: 0, Misses: 0
e0e-> Hits: 8708, Late: 0, Early: 0, Misses: 0
e0f-> Hits: 6193, Late: 0, Early: 0, Misses: 0
e12-> Hits: 11333, Late: 1896, Early: 0, Misses: 0
e13-> Hits: 18175, Late: 0, Early: 0, Misses: 0
e16-> Hits: 6064, Late: 12111, Early: 0, Misses: 0
e17-> Hits: 18175, Late: 0, Early: 0, Misses: 0
e18-> Hits: 12599, Late: 2252, Early: 0, Misses: 0
e1b-> Hits: 29145, Late: 3563, Early: 0, Misses: 0
e1f-> Hits: 1446, Late: 0, Early: 0, Misses: 0
e22-> Hits: 18175, Late: 0, Early: 0, Misses: 0
e26-> Hits: 18075, Late: 0, Early: 0, Misses: 0
e27-> Hits: 13267, Late: 2301, Early: 0, Misses: 0
e2a-> Hits: 17346, Late: 0, Early: 0, Misses: 0
e2d-> Hits: 18175, Late: 0, Early: 0, Misses: 0
e2e-> Hits: 3971, Late: 0, Early: 0, Misses: 0
e33-> Hits: 11305, Late: 0, Early: 0, Misses: 0
e35-> Hits: 18120, Late: 0, Early: 0, Misses: 0
e36-> Hits: 43522, Late: 10981, Early: 0, Misses: 20
e3b-> Hits: 5410, Late: 2342, Early: 0, Misses: 0
e3d-> Hits: 33911, Late: 20614, Early: 0, Misses: 0
e3e-> Hits: 30809, Late: 1, Early: 0, Misses: 5539
e40-> Hits: 35574, Late: 0, Early: 0, Misses: 0
e44-> Hits: 2955, Late: 0, Early: 0, Misses: 0
e45-> Hits: 30780, Late: 5570, Early: 0, Misses: 0
e46-> Hits: 9314, Late: 0, Early: 0, Misses: 0
e47-> Hits: 16210, Late: 0, Early: 0, Misses: 0
e49-> Hits: 13999, Late: 520, Early: 0, Misses: 0
e4b-> Hits: 7028, Late: 11147, Early: 0, Misses: 0
e4d-> Hits: 27296, Late: 2, Early: 0, Misses: 0
e4f-> Hits: 4977, Late: 0, Early: 0, Misses: 0
e50-> Hits: 11257, Late: 2941, Early: 0, Misses: 0
e54-> Hits: 34805, Late: 0, Early: 0, Misses: 0
e57-> Hits: 14570, Late: 1339, Early: 0, Misses: 0
e5a-> Hits: 9240, Late: 0, Early: 0, Misses: 0
e5c-> Hits: 14638, Late: 2105, Early: 0, Misses: 0
e5d-> Hits: 14889, Late: 0, Early: 0, Misses: 0
e5f-> Hits: 7239, Late: 10936, Early: 0, Misses: 0
e64-> Hits: 8297, Late: 3129, Early: 0, Misses: 0
e66-> Hits: 2831, Late: 0, Early: 0, Misses: 0
e6b-> Hits: 34834, Late: 1348, Early: 0, Misses: 0
e6e-> Hits: 34703, Late: 1647, Early: 0, Misses: 0
e6f-> Hits: 28126, Late: 0, Early: 0, Misses: 0
e72-> Hits: 16048, Late: 2127, Early: 0, Misses: 0
e77-> Hits: 6893, Late: 11282, Early: 0, Misses: 0
e79-> Hits: 0, Late: 18175, Early: 0, Misses: 0
e7c-> Hits: 9845, Late: 3285, Early: 0, Misses: 0
e83-> Hits: 1145, Late: 1690, Early: 0, Misses: 0
e86-> Hits: 3154, Late: 0, Early: 0, Misses: 0
e8d-> Hits: 28456, Late: 2365, Early: 0, Misses: 10
e8f-> Hits: 33494, Late: 1, Early: 0, Misses: 2855
e97-> Hits: 1474, Late: 16701, Early: 0, Misses: 0
e99-> Hits: 18175, Late: 0, Early: 0, Misses: 0
e9c-> Hits: 0, Late: 18175, Early: 0, Misses: 0
ea0-> Hits: 17967, Late: 0, Early: 0, Misses: 0
ea3-> Hits: 87, Late: 18088, Early: 0, Misses: 0
ea8-> Hits: 6029, Late: 4429, Early: 0, Misses: 0
ea9-> Hits: 18175, Late: 0, Early: 0, Misses: 0
eab-> Hits: 15138, Late: 0, Early: 0, Misses: 0
eaf-> Hits: 41, Late: 18134, Early: 0, Misses: 0
eb8-> Hits: 2126, Late: 449, Early: 0, Misses: 0
ebc-> Hits: 18513, Late: 17837, Early: 0, Misses: 0
ebd-> Hits: 36350, Late: 0, Early: 0, Misses: 0
ebe-> Hits: 18175, Late: 0, Early: 0, Misses: 0
ec2-> Hits: 6527, Late: 2476, Early: 0, Misses: 36
ec7-> Hits: 14632, Late: 0, Early: 0, Misses: 0
ece-> Hits: 46971, Late: 1095, Early: 0, Misses: 0
ecf-> Hits: 361, Late: 2304, Early: 0, Misses: 0
ed6-> Hits: 13809, Late: 0, Early: 0, Misses: 0
eda-> Hits: 72700, Late: 0, Early: 0, Misses: 0
edb-> Hits: 14859, Late: 1243, Early: 0, Misses: 0
ede-> Hits: 18175, Late: 0, Early: 0, Misses: 0
ee0-> Hits: 18175, Late: 0, Early: 0, Misses: 0
ee4-> Hits: 21847, Late: 12031, Early: 0, Misses: 0
eec-> Hits: 7030, Late: 2380, Early: 0, Misses: 0
eee-> Hits: 17868, Late: 0, Early: 0, Misses: 0
ef1-> Hits: 12598, Late: 0, Early: 0, Misses: 0
ef2-> Hits: 13137, Late: 2022, Early: 0, Misses: 0
ef5-> Hits: 18175, Late: 0, Early: 0, Misses: 0
ef9-> Hits: 23202, Late: 10823, Early: 0, Misses: 0
efb-> Hits: 18175, Late: 0, Early: 0, Misses: 0
f01-> Hits: 139, Late: 18036, Early: 0, Misses: 0
f02-> Hits: 7224, Late: 4482, Early: 0, Misses: 0
f03-> Hits: 17437, Late: 1, Early: 0, Misses: 737
f08-> Hits: 15327, Late: 0, Early: 0, Misses: 0
f0c-> Hits: 18172, Late: 0, Early: 0, Misses: 3
f0d-> Hits: 12841, Late: 1529, Early: 0, Misses: 0
f12-> Hits: 15135, Late: 2209, Early: 0, Misses: 0
f14-> Hits: 17916, Late: 0, Early: 0, Misses: 0
f15-> Hits: 18174, Late: 0, Early: 0, Misses: 0
f18-> Hits: 18175, Late: 0, Early: 0, Misses: 0
f19-> Hits: 18175, Late: 0, Early: 0, Misses: 0
f1d-> Hits: 10129, Late: 0, Early: 0, Misses: 0
f1e-> Hits: 15855, Late: 0, Early: 0, Misses: 0
f21-> Hits: 13315, Late: 2277, Early: 0, Misses: 0
f27-> Hits: 18175, Late: 0, Early: 0, Misses: 0
f2a-> Hits: 18175, Late: 0, Early: 0, Misses: 0
f2e-> Hits: 18175, Late: 0, Early: 0, Misses: 0
f31-> Hits: 13472, Late: 0, Early: 0, Misses: 0
f33-> Hits: 1866, Late: 0, Early: 0, Misses: 0
f36-> Hits: 13885, Late: 2579, Early: 0, Misses: 1711
f37-> Hits: 37305, Late: 17168, Early: 0, Misses: 0
f3b-> Hits: 18175, Late: 0, Early: 0, Misses: 0
f3d-> Hits: 18174, Late: 0, Early: 0, Misses: 0
f3e-> Hits: 21413, Late: 0, Early: 0, Misses: 0
f3f-> Hits: 16348, Late: 0, Early: 0, Misses: 0
f43-> Hits: 13490, Late: 299, Early: 0, Misses: 0
f46-> Hits: 18174, Late: 0, Early: 0, Misses: 0
f48-> Hits: 32004, Late: 0, Early: 0, Misses: 0
f50-> Hits: 13738, Late: 1706, Early: 0, Misses: 0
f51-> Hits: 32469, Late: 0, Early: 0, Misses: 0
f52-> Hits: 28396, Late: 3112, Early: 0, Misses: 0
f56-> Hits: 13803, Late: 2118, Early: 0, Misses: 0
f58-> Hits: 29068, Late: 3662, Early: 0, Misses: 0
f5f-> Hits: 17252, Late: 0, Early: 0, Misses: 0
f61-> Hits: 11245, Late: 0, Early: 0, Misses: 0
f64-> Hits: 31764, Late: 0, Early: 0, Misses: 0
f65-> Hits: 38392, Late: 1643, Early: 0, Misses: 0
f67-> Hits: 22492, Late: 0, Early: 0, Misses: 0
f68-> Hits: 23233, Late: 0, Early: 0, Misses: 0
f6a-> Hits: 12699, Late: 0, Early: 0, Misses: 0
f6c-> Hits: 15915, Late: 2260, Early: 0, Misses: 0
f6d-> Hits: 18175, Late: 0, Early: 0, Misses: 0
f70-> Hits: 27832, Late: 2340, Early: 0, Misses: 0
f73-> Hits: 18174, Late: 18175, Early: 0, Misses: 0
f76-> Hits: 17391, Late: 0, Early: 0, Misses: 0
f79-> Hits: 18175, Late: 0, Early: 0, Misses: 0
f7d-> Hits: 25389, Late: 1787, Early: 0, Misses: 0
f7e-> Hits: 11522, Late: 2205, Early: 0, Misses: 0
f80-> Hits: 18174, Late: 0, Early: 0, Misses: 0
f83-> Hits: 61, Late: 18114, Early: 0, Misses: 0
f89-> Hits: 1244, Late: 16931, Early: 0, Misses: 0
f8c-> Hits: 18175, Late: 0, Early: 0, Misses: 0
f8d-> Hits: 458, Late: 0, Early: 0, Misses: 0
f8f-> Hits: 62, Late: 18113, Early: 0, Misses: 0
f90-> Hits: 18175, Late: 0, Early: 0, Misses: 0
f92-> Hits: 18035, Late: 0, Early: 0, Misses: 0
f93-> Hits: 18121, Late: 0, Early: 0, Misses: 0
f94-> Hits: 4073, Late: 5671, Early: 0, Misses: 0
f95-> Hits: 18175, Late: 0, Early: 0, Misses: 0
f97-> Hits: 17067, Late: 2248, Early: 0, Misses: 0
f99-> Hits: 12726, Late: 1, Early: 0, Misses: 5448
f9a-> Hits: 31039, Late: 5311, Early: 0, Misses: 0
f9c-> Hits: 11764, Late: 732, Early: 0, Misses: 0
f9e-> Hits: 10337, Late: 2451, Early: 0, Misses: 0
fa0-> Hits: 264, Late: 4555, Early: 0, Misses: 11356
fa2-> Hits: 476, Late: 0, Early: 0, Misses: 0
fa4-> Hits: 1523, Late: 42, Early: 0, Misses: 0
fa5-> Hits: 10024, Late: 0, Early: 0, Misses: 0
fa6-> Hits: 324, Late: 6, Early: 0, Misses: 1874
fa7-> Hits: 2275, Late: 15900, Early: 0, Misses: 0
fa8-> Hits: 25598, Late: 0, Early: 0, Misses: 0
faa-> Hits: 18175, Late: 0, Early: 0, Misses: 0
fab-> Hits: 17851, Late: 0, Early: 0, Misses: 323
fac-> Hits: 17845, Late: 0, Early: 0, Misses: 0
fad-> Hits: 7177, Late: 0, Early: 0, Misses: 0
fb0-> Hits: 0, Late: 18173, Early: 0, Misses: 0
fb1-> Hits: 964, Late: 17211, Early: 0, Misses: 0
fb4-> Hits: 36349, Late: 0, Early: 0, Misses: 0
fb6-> Hits: 138, Late: 0, Early: 0, Misses: 1
fba-> Hits: 18175, Late: 0, Early: 0, Misses: 0
fbb-> Hits: 2315, Late: 15860, Early: 0, Misses: 0
fbe-> Hits: 3829, Late: 16873, Early: 0, Misses: 0
fbf-> Hits: 18175, Late: 0, Early: 0, Misses: 0
fc2-> Hits: 18174, Late: 0, Early: 0, Misses: 0
fc4-> Hits: 1019, Late: 4010, Early: 0, Misses: 0
fc7-> Hits: 17249, Late: 0, Early: 0, Misses: 0
fc8-> Hits: 18175, Late: 0, Early: 0, Misses: 0
fcd-> Hits: 17893, Late: 0, Early: 0, Misses: 0
fcf-> Hits: 17714, Late: 0, Early: 0, Misses: 0
fd0-> Hits: 18175, Late: 0, Early: 0, Misses: 0
fd1-> Hits: 18175, Late: 0, Early: 0, Misses: 0
fd2-> Hits: 492, Late: 17683, Early: 0, Misses: 0
fd3-> Hits: 18175, Late: 0, Early: 0, Misses: 0
fd6-> Hits: 17853, Late: 0, Early: 0, Misses: 321
fd7-> Hits: 12042, Late: 2572, Early: 0, Misses: 0
fd8-> Hits: 18070, Late: 0, Early: 0, Misses: 0
fda-> Hits: 18125, Late: 0, Early: 0, Misses: 0
fdd-> Hits: 7251, Late: 0, Early: 0, Misses: 0
fde-> Hits: 17866, Late: 0, Early: 0, Misses: 0
fe3-> Hits: 54525, Late: 0, Early: 0, Misses: 0
fe4-> Hits: 4560, Late: 2256, Early: 0, Misses: 2818
fe5-> Hits: 17193, Late: 17299, Early: 0, Misses: 0
fea-> Hits: 18175, Late: 0, Early: 0, Misses: 0
fec-> Hits: 18175, Late: 0, Early: 0, Misses: 0
fee-> Hits: 3517, Late: 2400, Early: 0, Misses: 0
ff0-> Hits: 18021, Late: 0, Early: 0, Misses: 0
ff1-> Hits: 17869, Late: 0, Early: 0, Misses: 305
ff2-> Hits: 8877, Late: 1619, Early: 0, Misses: 0
ff5-> Hits: 18175, Late: 0, Early: 0, Misses: 0
ff6-> Hits: 1941, Late: 0, Early: 0, Misses: 0
ff9-> Hits: 16626, Late: 18117, Early: 0, Misses: 0
ffb-> Hits: 1815, Late: 0, Early: 0, Misses: 0
ffd-> Hits: 2590, Late: 2324, Early: 0, Misses: 0
ffe-> Hits: 1208, Late: 0, Early: 0, Misses: 10
fff-> Hits: 18175, Late: 0, Early: 0, Misses: 0
Total misses (from ip) 6360323
Total accesses (misses) 30937992 6360323
Pref: Addr 0 IP 0 Current 0
L2 IP Table Read Accesses: 7500215
L2 IP Table Write Accesses: 5356531
L2 IP Table Tag Read Accesses: 4134849
L2 IP Table Tag Write Accesses: 4134849

DRAM Statistics
 CHANNEL 0
 RQ ROW_BUFFER_HIT:      68670  ROW_BUFFER_MISS:      71996
 DBUS_CONGESTED:        171
 WQ ROW_BUFFER_HIT:       7607  ROW_BUFFER_MISS:      21535  FULL:          0

 AVG_CONGESTED_CYCLE: 4
 All warmup complete: 2
Channel 0 Bank busy for read cycles: 0
Channel 0 Bank busy for write cycles: 0
Channel 0
Rank 0
0banks busy for read cycles: 42688506
0banks busy for write cycles: 14616
1banks busy for read cycles: 6483970
1banks busy for write cycles: 2325075
2banks busy for read cycles: 1975018
2banks busy for write cycles: 732945
3banks busy for read cycles: 486164
3banks busy for write cycles: 250044
4banks busy for read cycles: 192244
4banks busy for write cycles: 123909
5banks busy for read cycles: 129085
5banks busy for write cycles: 65556
6banks busy for read cycles: 111458
6banks busy for write cycles: 30245
7banks busy for read cycles: 32942
7banks busy for write cycles: 10291
8banks busy for read cycles: 3489
8banks busy for write cycles: 2406

CPU 0 Branch Prediction Accuracy: 99.9872% MPKI: 0.00114 Average ROB Occupancy at Mispredict: 37.4211
Branch types
NOT_BRANCH: 49554271 99.1085%
BRANCH_DIRECT_JUMP: 54526 0.109052%
BRANCH_INDIRECT: 9087 0.018174%
BRANCH_CONDITIONAL: 272740 0.54548%
BRANCH_DIRECT_CALL: 54526 0.109052%
BRANCH_INDIRECT_CALL: 0 0%
BRANCH_RETURN: 54526 0.109052%
BRANCH_OTHER: 0 0%

DRAM PAGES: 1048576
Allocated PAGES: 4534
