
*** ChampSim Multicore Out-of-Order Simulator ***

Warmup Instructions: 50000000
Simulation Instructions: 500000000
Number of CPUs: 1
LLC sets: 2048
LLC ways: 16
Off-chip DRAM Size: 4096 MB Channels: 1 Width: 64-bit Data Rate: 6400 MT/s
CPU 0 runs tracer/traces/621.wrf_s-6673B.champsimtrace.xz
.xz
CPU 0 Bimodal branch predictor
BTB has LRU replacement policy
ITLB has LRU replacement policy
DTLB has LRU replacement policy
STLB has LRU replacement policy
L1I has LRU replacement policy
CPU 0 L1D Berti prefetcher
L1D has LRU replacement policy
L2C has LRU replacement policy
Initialize Hawkeye state
Heartbeat CPU 0 instructions: 10000002 cycles: 3560803 heartbeat IPC: 2.80836 cumulative IPC: 2.80836 (Simulation time: 0 hr 3 min 57 sec) 
Heartbeat CPU 0 instructions: 20000003 cycles: 6465987 heartbeat IPC: 3.44212 cumulative IPC: 3.09311 (Simulation time: 0 hr 8 min 11 sec) 
Heartbeat CPU 0 instructions: 30000000 cycles: 9286271 heartbeat IPC: 3.54574 cumulative IPC: 3.23058 (Simulation time: 0 hr 12 min 20 sec) 
Heartbeat CPU 0 instructions: 40000002 cycles: 12172123 heartbeat IPC: 3.46518 cumulative IPC: 3.2862 (Simulation time: 0 hr 16 min 43 sec) 
Heartbeat CPU 0 instructions: 50000000 cycles: 15074134 heartbeat IPC: 3.44589 cumulative IPC: 3.31694 (Simulation time: 0 hr 21 min 11 sec) 

Warmup complete CPU 0 instructions: 50000004 cycles: 15074135 (Simulation time: 0 hr 21 min 11 sec) 

Heartbeat CPU 0 instructions: 60000000 cycles: 28595715 heartbeat IPC: 0.739558 cumulative IPC: 0.739558 (Simulation time: 0 hr 28 min 38 sec) 
Heartbeat CPU 0 instructions: 70000000 cycles: 45196141 heartbeat IPC: 0.602394 cumulative IPC: 0.663966 (Simulation time: 0 hr 37 min 17 sec) 
Heartbeat CPU 0 instructions: 80000000 cycles: 57301450 heartbeat IPC: 0.826084 cumulative IPC: 0.710441 (Simulation time: 0 hr 44 min 55 sec) 
Heartbeat CPU 0 instructions: 90000003 cycles: 70977327 heartbeat IPC: 0.731215 cumulative IPC: 0.715523 (Simulation time: 0 hr 53 min 16 sec) 
Heartbeat CPU 0 instructions: 100000000 cycles: 88263123 heartbeat IPC: 0.57851 cumulative IPC: 0.683163 (Simulation time: 1 hr 3 min 1 sec) 
Heartbeat CPU 0 instructions: 110000000 cycles: 97060077 heartbeat IPC: 1.13676 cumulative IPC: 0.731833 (Simulation time: 1 hr 8 min 50 sec) 
Heartbeat CPU 0 instructions: 120000003 cycles: 108415454 heartbeat IPC: 0.88064 cumulative IPC: 0.749936 (Simulation time: 1 hr 15 min 59 sec) 
Heartbeat CPU 0 instructions: 130000000 cycles: 117814268 heartbeat IPC: 1.06396 cumulative IPC: 0.778664 (Simulation time: 1 hr 21 min 29 sec) 
Heartbeat CPU 0 instructions: 140000002 cycles: 128113055 heartbeat IPC: 0.970988 cumulative IPC: 0.796186 (Simulation time: 1 hr 28 min 28 sec) 
Heartbeat CPU 0 instructions: 150000001 cycles: 139002437 heartbeat IPC: 0.918326 cumulative IPC: 0.806918 (Simulation time: 1 hr 34 min 43 sec) 
Heartbeat CPU 0 instructions: 160000000 cycles: 148253466 heartbeat IPC: 1.08096 cumulative IPC: 0.825954 (Simulation time: 1 hr 41 min 7 sec) 
Heartbeat CPU 0 instructions: 170000001 cycles: 159428592 heartbeat IPC: 0.894845 cumulative IPC: 0.831287 (Simulation time: 1 hr 47 min 46 sec) 
Heartbeat CPU 0 instructions: 180000000 cycles: 168617083 heartbeat IPC: 1.08832 cumulative IPC: 0.846669 (Simulation time: 1 hr 53 min 13 sec) 
Heartbeat CPU 0 instructions: 190000000 cycles: 182151131 heartbeat IPC: 0.738877 cumulative IPC: 0.837937 (Simulation time: 2 hr 0 min 40 sec) 
Heartbeat CPU 0 instructions: 200000003 cycles: 195854536 heartbeat IPC: 0.729746 cumulative IPC: 0.829736 (Simulation time: 2 hr 8 min 25 sec) 
Heartbeat CPU 0 instructions: 210000000 cycles: 209562090 heartbeat IPC: 0.729525 cumulative IPC: 0.822673 (Simulation time: 2 hr 15 min 38 sec) 
Heartbeat CPU 0 instructions: 220000000 cycles: 223362616 heartbeat IPC: 0.72461 cumulative IPC: 0.816176 (Simulation time: 2 hr 22 min 35 sec) 
Heartbeat CPU 0 instructions: 230000001 cycles: 238647807 heartbeat IPC: 0.654228 cumulative IPC: 0.805104 (Simulation time: 2 hr 29 min 20 sec) 
Heartbeat CPU 0 instructions: 240000002 cycles: 253498332 heartbeat IPC: 0.673377 cumulative IPC: 0.796899 (Simulation time: 2 hr 41 min 11 sec) 
Heartbeat CPU 0 instructions: 250000000 cycles: 260813934 heartbeat IPC: 1.36694 cumulative IPC: 0.813869 (Simulation time: 2 hr 46 min 55 sec) 
Heartbeat CPU 0 instructions: 260000001 cycles: 269078289 heartbeat IPC: 1.21002 cumulative IPC: 0.826758 (Simulation time: 2 hr 53 min 24 sec) 
Heartbeat CPU 0 instructions: 270000000 cycles: 278177240 heartbeat IPC: 1.09903 cumulative IPC: 0.836174 (Simulation time: 2 hr 59 min 18 sec) 
Heartbeat CPU 0 instructions: 280000000 cycles: 287265604 heartbeat IPC: 1.10031 cumulative IPC: 0.844993 (Simulation time: 3 hr 4 min 37 sec) 
Heartbeat CPU 0 instructions: 290000000 cycles: 295378686 heartbeat IPC: 1.23258 cumulative IPC: 0.856212 (Simulation time: 3 hr 10 min 27 sec) 
Heartbeat CPU 0 instructions: 300000000 cycles: 306604173 heartbeat IPC: 0.89083 cumulative IPC: 0.857545 (Simulation time: 3 hr 16 min 22 sec) 
Heartbeat CPU 0 instructions: 310000000 cycles: 318728690 heartbeat IPC: 0.824775 cumulative IPC: 0.856236 (Simulation time: 3 hr 23 min 51 sec) 
Heartbeat CPU 0 instructions: 320000000 cycles: 334289337 heartbeat IPC: 0.642647 cumulative IPC: 0.845824 (Simulation time: 3 hr 32 min 31 sec) 
Heartbeat CPU 0 instructions: 330000000 cycles: 345323297 heartbeat IPC: 0.906293 cumulative IPC: 0.847845 (Simulation time: 3 hr 38 min 59 sec) 
Heartbeat CPU 0 instructions: 340000003 cycles: 353741689 heartbeat IPC: 1.18788 cumulative IPC: 0.856297 (Simulation time: 3 hr 44 min 54 sec) 
Heartbeat CPU 0 instructions: 350000001 cycles: 367990969 heartbeat IPC: 0.70179 cumulative IPC: 0.850059 (Simulation time: 3 hr 53 min 29 sec) 
Heartbeat CPU 0 instructions: 360000001 cycles: 381053405 heartbeat IPC: 0.765554 cumulative IPC: 0.847043 (Simulation time: 4 hr 0 min 31 sec) 
Heartbeat CPU 0 instructions: 370000000 cycles: 394504834 heartbeat IPC: 0.743415 cumulative IPC: 0.843369 (Simulation time: 4 hr 7 min 49 sec) 
Heartbeat CPU 0 instructions: 380000000 cycles: 411206796 heartbeat IPC: 0.598732 cumulative IPC: 0.833054 (Simulation time: 4 hr 17 min 8 sec) 
Heartbeat CPU 0 instructions: 390000000 cycles: 423327614 heartbeat IPC: 0.825027 cumulative IPC: 0.832816 (Simulation time: 4 hr 23 min 25 sec) 
Heartbeat CPU 0 instructions: 400000001 cycles: 437038016 heartbeat IPC: 0.729373 cumulative IPC: 0.829455 (Simulation time: 4 hr 30 min 31 sec) 
Heartbeat CPU 0 instructions: 410000000 cycles: 451870840 heartbeat IPC: 0.67418 cumulative IPC: 0.824182 (Simulation time: 4 hr 36 min 58 sec) 
Heartbeat CPU 0 instructions: 420000003 cycles: 464828297 heartbeat IPC: 0.771757 cumulative IPC: 0.822672 (Simulation time: 4 hr 43 min 31 sec) 
Heartbeat CPU 0 instructions: 430000000 cycles: 479536779 heartbeat IPC: 0.67988 cumulative IPC: 0.81815 (Simulation time: 4 hr 50 min 7 sec) 
Heartbeat CPU 0 instructions: 440000000 cycles: 492635489 heartbeat IPC: 0.763434 cumulative IPC: 0.816649 (Simulation time: 4 hr 55 min 36 sec) 
Heartbeat CPU 0 instructions: 450000000 cycles: 506257989 heartbeat IPC: 0.73408 cumulative IPC: 0.814359 (Simulation time: 5 hr 1 min 10 sec) 
Heartbeat CPU 0 instructions: 460000001 cycles: 522284810 heartbeat IPC: 0.623954 cumulative IPC: 0.808343 (Simulation time: 5 hr 7 min 14 sec) 
Heartbeat CPU 0 instructions: 470000002 cycles: 537625059 heartbeat IPC: 0.65188 cumulative IPC: 0.803749 (Simulation time: 5 hr 13 min 36 sec) 
Heartbeat CPU 0 instructions: 480000000 cycles: 547944918 heartbeat IPC: 0.969005 cumulative IPC: 0.80695 (Simulation time: 5 hr 17 min 31 sec) 
Heartbeat CPU 0 instructions: 490000000 cycles: 556038129 heartbeat IPC: 1.2356 cumulative IPC: 0.813363 (Simulation time: 5 hr 20 min 52 sec) 
Heartbeat CPU 0 instructions: 500000000 cycles: 566128589 heartbeat IPC: 0.991035 cumulative IPC: 0.816616 (Simulation time: 5 hr 24 min 25 sec) 
Heartbeat CPU 0 instructions: 510000002 cycles: 578409812 heartbeat IPC: 0.814251 cumulative IPC: 0.816565 (Simulation time: 5 hr 28 min 44 sec) 
Heartbeat CPU 0 instructions: 520000003 cycles: 588515869 heartbeat IPC: 0.989506 cumulative IPC: 0.819613 (Simulation time: 5 hr 31 min 56 sec) 
Heartbeat CPU 0 instructions: 530000002 cycles: 596723256 heartbeat IPC: 1.21841 cumulative IPC: 0.82524 (Simulation time: 5 hr 35 min 44 sec) 
Heartbeat CPU 0 instructions: 540000001 cycles: 608535000 heartbeat IPC: 0.846615 cumulative IPC: 0.825665 (Simulation time: 5 hr 39 min 47 sec) 
Heartbeat CPU 0 instructions: 550000000 cycles: 621564752 heartbeat IPC: 0.767474 cumulative IPC: 0.824415 (Simulation time: 5 hr 44 min 23 sec) 
Finished CPU 0 instructions: 500000000 cycles: 606490634 cumulative IPC: 0.824415 (Simulation time: 5 hr 44 min 23 sec) 

ChampSim completed all CPUs

Region of Interest Statistics

CPU 0 cumulative IPC: 0.824415 instructions: 500000000 cycles: 606490634
ITLB TOTAL     ACCESS:   71965049  HIT:   71964554  MISS:        495  HIT %:    99.9993  MISS %: 0.000687834   MPKI: 0.00099
ITLB LOAD TRANSLATION ACCESS:   71965049  HIT:   71964554  MISS:        495  HIT %:    99.9993  MISS %: 0.000687834   MPKI: 0.00099
ITLB PREFETCH  REQUESTED:          0  ISSUED:          0  USEFUL:          0  USELESS:          0
ITLB USEFUL LOAD PREFETCHES:          0 PREFETCH ISSUED TO LOWER LEVEL:          0  ACCURACY: -nan
ITLB TIMELY PREFETCHES:          0 LATE PREFETCHES: 0 DROPPED PREFETCHES: 0
ITLB PREFETCHES SAME FILL-ORIGIN LEVEL: 0 DIFFERENT FILL-ORIGIN LEVEL: 0
ITLB AVERAGE MISS LATENCY: 205.988 cycles
ITLB RQ	ACCESS:   87685679	FORWARD:          0	MERGED:   15720454	TO_CACHE:   71965225

DTLB TOTAL     ACCESS:  125108017  HIT:  124538137  MISS:     569880  HIT %:    99.5445  MISS %:    0.45551   MPKI: 1.13976
DTLB LOAD TRANSLATION ACCESS:  125108017  HIT:  124538137  MISS:     569880  HIT %:    99.5445  MISS %:    0.45551   MPKI: 1.13976
DTLB PREFETCH  REQUESTED:          0  ISSUED:          0  USEFUL:          0  USELESS:          0
DTLB USEFUL LOAD PREFETCHES:          0 PREFETCH ISSUED TO LOWER LEVEL:          0  ACCURACY: -nan
DTLB TIMELY PREFETCHES:          0 LATE PREFETCHES: 0 DROPPED PREFETCHES: 0
DTLB PREFETCHES SAME FILL-ORIGIN LEVEL: 0 DIFFERENT FILL-ORIGIN LEVEL: 0
DTLB AVERAGE MISS LATENCY: 15.655 cycles
DTLB RQ	ACCESS:  142112922	FORWARD:          0	MERGED:   16894707	TO_CACHE:  125218215

STLB TOTAL     ACCESS:   74019964  HIT:   73943313  MISS:      76651  HIT %:    99.8964  MISS %:   0.103554   MPKI: 0.153302
STLB LOAD TRANSLATION ACCESS:     570375  HIT:     546588  MISS:      23787  HIT %:    95.8296  MISS %:    4.17041   MPKI: 0.047574
STLB TRANSLATION FROM L1D PREFETCHER ACCESS:   73449589  HIT:   73396725  MISS:      52864  HIT %:     99.928  MISS %:  0.0719732   MPKI: 0.105728
STLB PREFETCH  REQUESTED:          0  ISSUED:          0  USEFUL:      52793  USELESS:         46
STLB USEFUL LOAD PREFETCHES:      52793 PREFETCH ISSUED TO LOWER LEVEL:          0  ACCURACY: inf
STLB TIMELY PREFETCHES:      52793 LATE PREFETCHES: 1739 DROPPED PREFETCHES: 226234
STLB PREFETCHES SAME FILL-ORIGIN LEVEL: 0 DIFFERENT FILL-ORIGIN LEVEL: 0
STLB AVERAGE MISS LATENCY: 361836 cycles
STLB RQ	ACCESS:   88171432	FORWARD:          0	MERGED:   13906096	TO_CACHE:   74265336

STLB Hit, L1D data hit: 0
STLB Hit, L2C data hit: 0
STLB Hit, LLC data hit: 0
STLB Hit, LLC data miss: 0
STLB STLB hints to L2: 0
L1D TOTAL     ACCESS:  213624640  HIT:  202854365  MISS:   10770275  HIT %:    94.9583  MISS %:    5.04168   MPKI: 21.5405
L1D LOAD      ACCESS:  115782136  HIT:  114163698  MISS:    1618438  HIT %:    98.6022  MISS %:    1.39783   MPKI: 3.23688
L1D RFO       ACCESS:   21655300  HIT:   20099247  MISS:    1556053  HIT %:    92.8144  MISS %:    7.18555   MPKI: 3.11211
L1D PREFETCH  ACCESS:   76187204  HIT:   68591420  MISS:    7595784  HIT %:    90.0301  MISS %:    9.96989   MPKI: 15.1916
AGUS PREFETCH L1 MISS: 0
L1D PREFETCH  REQUESTED:  182452409  ISSUED:  182452409  USEFUL:    6967400  USELESS:     628371
L1D USEFUL LOAD PREFETCHES:    6967400 PREFETCH ISSUED TO LOWER LEVEL:    8145378  ACCURACY: 85.5381
L1D TIMELY PREFETCHES:    6967400 LATE PREFETCHES: 548895 DROPPED PREFETCHES: 234045
L1D PREFETCHES SAME FILL-ORIGIN LEVEL: 8145378 DIFFERENT FILL-ORIGIN LEVEL: 0
L1D AVERAGE MISS LATENCY: 1.6712e+07 cycles
L1D RQ	ACCESS:  160480998	FORWARD:          0	MERGED:   43692894	TO_CACHE:  116726599
L1D WQ	ACCESS:   25451118	FORWARD:      63744	MERGED:      64795	TO_CACHE:   25386323
L1D PQ	ACCESS:   94851352	FORWARD:          0	MERGED:    7248056	TO_CACHE:   87601057

L1D UNIQUE REGIONS ACCESSED: 0
L1D REGIONS CONFLICTS: 0
L1D Cross Page Prefetch Requests: 0
L1D Same Page Prefetch Requests: 103760901
L1D ROI Sum of L1D PQ occupancy: 1447157812
L1D PREFETCHES PUSHED FROM L2C: 0
L1I TOTAL     ACCESS:   87677165  HIT:   87660274  MISS:      16891  HIT %:    99.9807  MISS %:   0.019265   MPKI: 0.033782
L1I LOAD      ACCESS:   87677165  HIT:   87660274  MISS:      16891  HIT %:    99.9807  MISS %:   0.019265   MPKI: 0.033782
L1I PREFETCH  REQUESTED:          0  ISSUED:          0  USEFUL:          0  USELESS:          0
L1I USEFUL LOAD PREFETCHES:          0 PREFETCH ISSUED TO LOWER LEVEL:          0  ACCURACY: -nan
L1I TIMELY PREFETCHES:          0 LATE PREFETCHES: 0 DROPPED PREFETCHES: 0
L1I PREFETCHES SAME FILL-ORIGIN LEVEL: 0 DIFFERENT FILL-ORIGIN LEVEL: 0
L1I AVERAGE MISS LATENCY: 222.625 cycles
L1I RQ	ACCESS:  127368615	FORWARD:          0	MERGED:   39682936	TO_CACHE:   87685679

BTB TOTAL     ACCESS:   21785475  HIT:   21770639  MISS:      14836  HIT %:    99.9319  MISS %:  0.0681004   MPKI: 0.029672
BTB BRANCH_DIRECT_JUMP	ACCESS:     316003  HIT:     315812  MISS:        191
BTB BRANCH_INDIRECT	ACCESS:         23  HIT:         13  MISS:         10
BTB BRANCH_CONDITIONAL	ACCESS:   20795508  HIT:   20793817  MISS:       1691
BTB BRANCH_DIRECT_CALL	ACCESS:     336971  HIT:     336179  MISS:        792
BTB BRANCH_INDIRECT_CALL	ACCESS:          0  HIT:          0  MISS:          0
BTB BRANCH_RETURN	ACCESS:     336970  HIT:     324818  MISS:      12152
BTB BRANCH_OTHER ACCESS:          0  HIT:          0  MISS:          0

L2C TOTAL     ACCESS:   14710472  HIT:    6815738  MISS:    7894734  HIT %:    46.3326  MISS %:    53.6674   MPKI: 15.7895
L2C LOAD      ACCESS:    1086419  HIT:     412346  MISS:     674073  HIT %:    37.9546  MISS %:    62.0454   MPKI: 1.34815
L2C DATA LOAD MPKI: 1.31436
L2C INSTRUCTION LOAD MPKI: 0.033782
L2C RFO       ACCESS:    1555323  HIT:     439651  MISS:    1115672  HIT %:    28.2675  MISS %:    71.7325   MPKI: 2.23134
L2C PREFETCH  ACCESS:    8145226  HIT:    2057342  MISS:    6087884  HIT %:    25.2583  MISS %:    74.7417   MPKI: 12.1758
AGUS PREFETCH L1 MISS: 0
L2C DATA PREFETCH MPKI: 12.1758
L2C INSTRUCTION PREFETCH MPKI: 0
L2C WRITEBACK ACCESS:    3614969  HIT:    3611103  MISS:       3866  HIT %:    99.8931  MISS %:   0.106944   MPKI: 0.007732
L2C LOAD TRANSLATION ACCESS:      22951  HIT:      18067  MISS:       4884  HIT %:    78.7199  MISS %:    21.2801   MPKI: 0.009768
L2C TRANSLATION FROM L1D PREFETCHER ACCESS:     285584  HIT:     277229  MISS:       8355  HIT %:    97.0744  MISS %:    2.92558   MPKI: 0.01671
L2C PREFETCH  REQUESTED:          0  ISSUED:          0  USEFUL:     196407  USELESS:    5901858
L2C USEFUL LOAD PREFETCHES:     196407 PREFETCH ISSUED TO LOWER LEVEL:    6087884  ACCURACY: 3.22619
L2C TIMELY PREFETCHES:     196407 LATE PREFETCHES: 0 DROPPED PREFETCHES: 0
L2C PREFETCHES SAME FILL-ORIGIN LEVEL: 0 DIFFERENT FILL-ORIGIN LEVEL: 0
L2C AVERAGE MISS LATENCY: 253.755 cycles
L2C RQ	ACCESS:    2950323	FORWARD:          0	MERGED:          0	TO_CACHE:    2950277
L2C WQ	ACCESS:    3614969	FORWARD:        198	MERGED:          0	TO_CACHE:    3614969
L2C PQ	ACCESS:    8145378	FORWARD:          0	MERGED:          0	TO_CACHE:    8145226

L2C Instructions Evicting Data 16852
L2C Translations Evicting Data 13186
L2C Data Evicting Data 7831742
L2C Instructions Evicting Instructions 16
L2C Translations Evicting Instructions 27
L2C Data Evicting Instructions 16847
L2C Instructions Evicting Translations 23
L2C Translations Evicting Translations 26
L2C Data Evicting Translations 13173
L2C Dense regions hint from L2: 0
PSCL5 TOTAL     ACCESS:     303352  HIT:     303352  MISS:          0  HIT %:        100  MISS %:          0   MPKI: 0
PSCL5 LOAD TRANSLATION ACCESS:      22515  HIT:      22515  MISS:          0  HIT %:        100  MISS %:          0   MPKI: 0
PSCL5 TRANSLATION FROM L1D PREFETCHER ACCESS:     280837  HIT:     280837  MISS:          0  HIT %:        100  MISS %:          0   MPKI: 0
PSCL5 PREFETCH  REQUESTED:          0  ISSUED:          0  USEFUL:          0  USELESS:          0
PSCL5 USEFUL LOAD PREFETCHES:          0 PREFETCH ISSUED TO LOWER LEVEL:          0  ACCURACY: -nan
PSCL5 TIMELY PREFETCHES:          0 LATE PREFETCHES: 0 DROPPED PREFETCHES: 0
PSCL5 PREFETCHES SAME FILL-ORIGIN LEVEL: 0 DIFFERENT FILL-ORIGIN LEVEL: 0

PSCL4 TOTAL     ACCESS:     303352  HIT:     303352  MISS:          0  HIT %:        100  MISS %:          0   MPKI: 0
PSCL4 LOAD TRANSLATION ACCESS:      22515  HIT:      22515  MISS:          0  HIT %:        100  MISS %:          0   MPKI: 0
PSCL4 TRANSLATION FROM L1D PREFETCHER ACCESS:     280837  HIT:     280837  MISS:          0  HIT %:        100  MISS %:          0   MPKI: 0
PSCL4 PREFETCH  REQUESTED:          0  ISSUED:          0  USEFUL:          0  USELESS:          0
PSCL4 USEFUL LOAD PREFETCHES:          0 PREFETCH ISSUED TO LOWER LEVEL:          0  ACCURACY: -nan
PSCL4 TIMELY PREFETCHES:          0 LATE PREFETCHES: 0 DROPPED PREFETCHES: 0
PSCL4 PREFETCHES SAME FILL-ORIGIN LEVEL: 0 DIFFERENT FILL-ORIGIN LEVEL: 0

PSCL3 TOTAL     ACCESS:     303352  HIT:     303352  MISS:          0  HIT %:        100  MISS %:          0   MPKI: 0
PSCL3 LOAD TRANSLATION ACCESS:      22515  HIT:      22515  MISS:          0  HIT %:        100  MISS %:          0   MPKI: 0
PSCL3 TRANSLATION FROM L1D PREFETCHER ACCESS:     280837  HIT:     280837  MISS:          0  HIT %:        100  MISS %:          0   MPKI: 0
PSCL3 PREFETCH  REQUESTED:          0  ISSUED:          0  USEFUL:          0  USELESS:          0
PSCL3 USEFUL LOAD PREFETCHES:          0 PREFETCH ISSUED TO LOWER LEVEL:          0  ACCURACY: -nan
PSCL3 TIMELY PREFETCHES:          0 LATE PREFETCHES: 0 DROPPED PREFETCHES: 0
PSCL3 PREFETCHES SAME FILL-ORIGIN LEVEL: 0 DIFFERENT FILL-ORIGIN LEVEL: 0

PSCL2 TOTAL     ACCESS:     298627  HIT:     298076  MISS:        551  HIT %:    99.8155  MISS %:   0.184511   MPKI: 0.001102
PSCL2 LOAD TRANSLATION ACCESS:      22619  HIT:      22068  MISS:        551  HIT %:     97.564  MISS %:    2.43601   MPKI: 0.001102
PSCL2 TRANSLATION FROM L1D PREFETCHER ACCESS:     276008  HIT:     276008  MISS:          0  HIT %:        100  MISS %:          0   MPKI: 0
PSCL2 PREFETCH  REQUESTED:          0  ISSUED:          0  USEFUL:          0  USELESS:          0
PSCL2 USEFUL LOAD PREFETCHES:          0 PREFETCH ISSUED TO LOWER LEVEL:          0  ACCURACY: -nan
PSCL2 TIMELY PREFETCHES:          0 LATE PREFETCHES: 0 DROPPED PREFETCHES: 0
PSCL2 PREFETCHES SAME FILL-ORIGIN LEVEL: 0 DIFFERENT FILL-ORIGIN LEVEL: 0

LLC TOTAL     ACCESS:   10752851  HIT:    2959315  MISS:    7793536  HIT %:    27.5212  MISS %:    72.4788   MPKI: 15.5871
LLC LOAD      ACCESS:     674073  HIT:     181539  MISS:     492534  HIT %:    26.9317  MISS %:    73.0683   MPKI: 0.985068
LLC RFO       ACCESS:    1115672  HIT:     207131  MISS:     908541  HIT %:    18.5656  MISS %:    81.4344   MPKI: 1.81708
LLC PREFETCH  ACCESS:    6087879  HIT:    1007889  MISS:    5079990  HIT %:    16.5557  MISS %:    83.4443   MPKI: 10.16
AGUS PREFETCH L1 MISS: 0
LLC WRITEBACK ACCESS:    2861988  HIT:    1561709  MISS:    1300279  HIT %:    54.5673  MISS %:    45.4327   MPKI: 2.60056
LLC LOAD TRANSLATION ACCESS:       4884  HIT:        397  MISS:       4487  HIT %:    8.12858  MISS %:    91.8714   MPKI: 0.008974
LLC TRANSLATION FROM L1D PREFETCHER ACCESS:       8355  HIT:        650  MISS:       7705  HIT %:    7.77977  MISS %:    92.2202   MPKI: 0.01541
LLC PREFETCH  REQUESTED:          0  ISSUED:          0  USEFUL:     242749  USELESS:    4860615
LLC USEFUL LOAD PREFETCHES:     242749 PREFETCH ISSUED TO LOWER LEVEL:    5079990  ACCURACY: 4.77853
LLC TIMELY PREFETCHES:     242749 LATE PREFETCHES: 0 DROPPED PREFETCHES: 0
LLC PREFETCHES SAME FILL-ORIGIN LEVEL: 0 DIFFERENT FILL-ORIGIN LEVEL: 0
LLC AVERAGE MISS LATENCY: 226.618 cycles
LLC RQ	ACCESS:    1802984	FORWARD:          0	MERGED:          0	TO_CACHE:    1802984
LLC WQ	ACCESS:    2861988	FORWARD:          5	MERGED:          0	TO_CACHE:    2861988
LLC PQ	ACCESS:    6087884	FORWARD:          0	MERGED:          0	TO_CACHE:    6087879

LLC Dense regions hint to LLC: 0

RAW hits: 428949
Loads Generated: 160909951
Loads sent to L1D: 160480998
Stores Generated: 25451118
Stores sent to L1D: 25451124
Major fault: 0 Minor fault: 11520
Allocated PAGES: 11520
CPU 0 L1D berti prefetcher final stats
0-> Hits: 468871, Late: 6659, Early: 0, Misses: 3554
1-> Hits: 10, Late: 0, Early: 0, Misses: 1
2-> Hits: 24, Late: 6, Early: 0, Misses: 0
3-> Hits: 152128, Late: 10488, Early: 0, Misses: 82
4-> Hits: 243417, Late: 1058, Early: 0, Misses: 0
5-> Hits: 1639, Late: 9, Early: 0, Misses: 0
6-> Hits: 3137, Late: 2, Early: 0, Misses: 1
7-> Hits: 38, Late: 0, Early: 0, Misses: 0
8-> Hits: 85684, Late: 25, Early: 0, Misses: 8
9-> Hits: 162690, Late: 0, Early: 0, Misses: 0
a-> Hits: 48629, Late: 14, Early: 0, Misses: 0
b-> Hits: 12692, Late: 1, Early: 0, Misses: 0
c-> Hits: 5130, Late: 7, Early: 0, Misses: 0
d-> Hits: 505, Late: 1, Early: 0, Misses: 0
e-> Hits: 4468, Late: 2, Early: 0, Misses: 0
f-> Hits: 8, Late: 0, Early: 0, Misses: 0
10-> Hits: 46019, Late: 6883, Early: 0, Misses: 81
11-> Hits: 119, Late: 2, Early: 0, Misses: 0
12-> Hits: 26690, Late: 0, Early: 0, Misses: 0
13-> Hits: 177799, Late: 201, Early: 0, Misses: 658
14-> Hits: 8, Late: 1, Early: 0, Misses: 0
15-> Hits: 144, Late: 1, Early: 0, Misses: 0
16-> Hits: 25, Late: 1, Early: 0, Misses: 0
17-> Hits: 47115, Late: 21, Early: 0, Misses: 1
18-> Hits: 449, Late: 3, Early: 0, Misses: 2
19-> Hits: 248858, Late: 54, Early: 0, Misses: 9
1a-> Hits: 55, Late: 0, Early: 0, Misses: 0
1b-> Hits: 3258, Late: 7, Early: 0, Misses: 0
1c-> Hits: 3126, Late: 1, Early: 0, Misses: 0
1d-> Hits: 179547, Late: 3, Early: 0, Misses: 0
1e-> Hits: 67, Late: 0, Early: 0, Misses: 2
1f-> Hits: 1611, Late: 0, Early: 0, Misses: 0
20-> Hits: 87301, Late: 1583, Early: 0, Misses: 1
21-> Hits: 129, Late: 0, Early: 0, Misses: 0
23-> Hits: 233, Late: 0, Early: 0, Misses: 1
24-> Hits: 9429, Late: 0, Early: 0, Misses: 0
25-> Hits: 209106, Late: 13, Early: 0, Misses: 0
26-> Hits: 182161, Late: 77, Early: 0, Misses: 321
27-> Hits: 3138, Late: 0, Early: 0, Misses: 0
28-> Hits: 0, Late: 2, Early: 0, Misses: 1
29-> Hits: 81, Late: 4, Early: 0, Misses: 1
2a-> Hits: 390565, Late: 0, Early: 0, Misses: 0
2b-> Hits: 1639, Late: 2, Early: 0, Misses: 106
2c-> Hits: 84829, Late: 25, Early: 0, Misses: 0
2d-> Hits: 8, Late: 0, Early: 0, Misses: 0
2e-> Hits: 2989, Late: 3, Early: 0, Misses: 2
2f-> Hits: 3915, Late: 2151, Early: 0, Misses: 0
30-> Hits: 396, Late: 2, Early: 0, Misses: 0
31-> Hits: 56, Late: 0, Early: 0, Misses: 0
32-> Hits: 242455, Late: 0, Early: 0, Misses: 1615
33-> Hits: 6415, Late: 0, Early: 0, Misses: 5
34-> Hits: 3255, Late: 0, Early: 0, Misses: 0
35-> Hits: 359, Late: 0, Early: 0, Misses: 0
36-> Hits: 11, Late: 11, Early: 0, Misses: 11
38-> Hits: 90108, Late: 194, Early: 0, Misses: 0
39-> Hits: 3245, Late: 1, Early: 0, Misses: 0
3a-> Hits: 6, Late: 0, Early: 0, Misses: 0
3b-> Hits: 14, Late: 6, Early: 0, Misses: 81
3c-> Hits: 1, Late: 0, Early: 0, Misses: 0
3d-> Hits: 57, Late: 0, Early: 0, Misses: 5
3e-> Hits: 92353, Late: 321, Early: 0, Misses: 0
3f-> Hits: 231, Late: 0, Early: 0, Misses: 0
40-> Hits: 266264, Late: 91, Early: 0, Misses: 1678
41-> Hits: 7, Late: 0, Early: 0, Misses: 0
42-> Hits: 3, Late: 1, Early: 0, Misses: 0
43-> Hits: 233, Late: 1, Early: 0, Misses: 81
44-> Hits: 92544, Late: 242, Early: 0, Misses: 1
45-> Hits: 21652, Late: 6607, Early: 0, Misses: 2
46-> Hits: 199, Late: 1, Early: 0, Misses: 0
47-> Hits: 11, Late: 0, Early: 0, Misses: 5
48-> Hits: 560, Late: 0, Early: 0, Misses: 3
49-> Hits: 60, Late: 1, Early: 0, Misses: 0
4a-> Hits: 417098, Late: 374, Early: 0, Misses: 0
4b-> Hits: 1735, Late: 2, Early: 0, Misses: 1
4c-> Hits: 2, Late: 0, Early: 0, Misses: 0
4d-> Hits: 22572, Late: 95, Early: 0, Misses: 0
4e-> Hits: 1598, Late: 0, Early: 0, Misses: 0
4f-> Hits: 3246, Late: 3, Early: 0, Misses: 0
50-> Hits: 1676, Late: 7, Early: 0, Misses: 0
51-> Hits: 147, Late: 0, Early: 0, Misses: 0
52-> Hits: 252254, Late: 8, Early: 0, Misses: 1609
53-> Hits: 84023, Late: 0, Early: 0, Misses: 0
54-> Hits: 778, Late: 0, Early: 0, Misses: 0
55-> Hits: 54, Late: 3, Early: 0, Misses: 0
56-> Hits: 14336, Late: 8358, Early: 0, Misses: 0
57-> Hits: 58676, Late: 0, Early: 0, Misses: 0
58-> Hits: 242791, Late: 0, Early: 0, Misses: 1599
59-> Hits: 8081, Late: 821, Early: 0, Misses: 0
5a-> Hits: 9, Late: 0, Early: 0, Misses: 0
5b-> Hits: 1682, Late: 2, Early: 0, Misses: 13
5d-> Hits: 5, Late: 5, Early: 0, Misses: 5
5e-> Hits: 207189, Late: 2, Early: 0, Misses: 0
5f-> Hits: 353, Late: 0, Early: 0, Misses: 0
60-> Hits: 15, Late: 2, Early: 0, Misses: 0
61-> Hits: 3, Late: 6, Early: 0, Misses: 0
62-> Hits: 3867, Late: 60, Early: 0, Misses: 0
63-> Hits: 2741, Late: 0, Early: 0, Misses: 0
64-> Hits: 3241, Late: 7, Early: 0, Misses: 0
65-> Hits: 2, Late: 1, Early: 0, Misses: 0
66-> Hits: 243212, Late: 22, Early: 0, Misses: 1278
67-> Hits: 4394, Late: 512, Early: 0, Misses: 0
68-> Hits: 136801, Late: 0, Early: 0, Misses: 1
69-> Hits: 46, Late: 0, Early: 0, Misses: 0
6a-> Hits: 70855, Late: 0, Early: 0, Misses: 0
6b-> Hits: 243510, Late: 965, Early: 0, Misses: 0
6c-> Hits: 1691, Late: 1, Early: 0, Misses: 0
6d-> Hits: 203487, Late: 1840, Early: 0, Misses: 0
6e-> Hits: 95, Late: 5, Early: 0, Misses: 0
6f-> Hits: 21, Late: 0, Early: 0, Misses: 0
70-> Hits: 57602, Late: 19688, Early: 0, Misses: 1
71-> Hits: 4353, Late: 1548, Early: 0, Misses: 0
72-> Hits: 210365, Late: 0, Early: 0, Misses: 0
73-> Hits: 4821, Late: 0, Early: 0, Misses: 0
74-> Hits: 20903, Late: 8005, Early: 0, Misses: 0
75-> Hits: 1698, Late: 0, Early: 0, Misses: 0
76-> Hits: 85513, Late: 1, Early: 0, Misses: 1
77-> Hits: 681, Late: 0, Early: 0, Misses: 0
78-> Hits: 467, Late: 0, Early: 0, Misses: 2
79-> Hits: 93003, Late: 21775, Early: 0, Misses: 0
7a-> Hits: 204043, Late: 34, Early: 0, Misses: 0
7b-> Hits: 323, Late: 6, Early: 0, Misses: 0
7c-> Hits: 1513, Late: 0, Early: 0, Misses: 2
7d-> Hits: 21695, Late: 7889, Early: 0, Misses: 0
7e-> Hits: 56203, Late: 0, Early: 0, Misses: 1
7f-> Hits: 3189, Late: 0, Early: 0, Misses: 0
80-> Hits: 11271, Late: 84, Early: 0, Misses: 2
81-> Hits: 178, Late: 1, Early: 0, Misses: 0
82-> Hits: 76150, Late: 0, Early: 0, Misses: 1
83-> Hits: 4634, Late: 633, Early: 0, Misses: 0
84-> Hits: 3533, Late: 6, Early: 0, Misses: 0
85-> Hits: 93213, Late: 76, Early: 0, Misses: 0
86-> Hits: 13836, Late: 5, Early: 0, Misses: 20
87-> Hits: 166771, Late: 0, Early: 0, Misses: 0
88-> Hits: 1719, Late: 0, Early: 0, Misses: 1
89-> Hits: 3, Late: 2, Early: 0, Misses: 1
8a-> Hits: 113, Late: 0, Early: 0, Misses: 0
8b-> Hits: 4705, Late: 6, Early: 0, Misses: 0
8c-> Hits: 10796, Late: 6, Early: 0, Misses: 66
8d-> Hits: 61241, Late: 1253, Early: 0, Misses: 5
8f-> Hits: 205996, Late: 1, Early: 0, Misses: 8
90-> Hits: 5961, Late: 3634, Early: 0, Misses: 2
91-> Hits: 219664, Late: 2, Early: 0, Misses: 56
92-> Hits: 10577, Late: 217, Early: 0, Misses: 0
93-> Hits: 4686, Late: 4, Early: 0, Misses: 30
94-> Hits: 9, Late: 0, Early: 0, Misses: 0
95-> Hits: 1968, Late: 1624, Early: 0, Misses: 1
96-> Hits: 3246, Late: 0, Early: 0, Misses: 0
97-> Hits: 11368, Late: 236, Early: 0, Misses: 0
98-> Hits: 9407, Late: 0, Early: 0, Misses: 0
99-> Hits: 5086, Late: 5114, Early: 0, Misses: 0
9b-> Hits: 7, Late: 0, Early: 0, Misses: 0
9c-> Hits: 227852, Late: 3, Early: 0, Misses: 0
9d-> Hits: 5432, Late: 6, Early: 0, Misses: 0
9e-> Hits: 1497, Late: 2092, Early: 0, Misses: 0
9f-> Hits: 14023, Late: 0, Early: 0, Misses: 0
a0-> Hits: 6162, Late: 549, Early: 0, Misses: 0
a1-> Hits: 1, Late: 6, Early: 0, Misses: 1
a2-> Hits: 1, Late: 0, Early: 0, Misses: 0
a3-> Hits: 1334, Late: 0, Early: 0, Misses: 0
a4-> Hits: 18966, Late: 39, Early: 0, Misses: 9
a5-> Hits: 21644, Late: 9, Early: 0, Misses: 0
a6-> Hits: 11488, Late: 60, Early: 0, Misses: 0
a7-> Hits: 372, Late: 0, Early: 0, Misses: 1
a8-> Hits: 4, Late: 0, Early: 0, Misses: 1
a9-> Hits: 1684, Late: 0, Early: 0, Misses: 0
aa-> Hits: 6, Late: 0, Early: 0, Misses: 0
ab-> Hits: 3297, Late: 2, Early: 0, Misses: 0
ac-> Hits: 228708, Late: 0, Early: 0, Misses: 2
ad-> Hits: 939, Late: 22, Early: 0, Misses: 0
ae-> Hits: 11022, Late: 0, Early: 0, Misses: 4
af-> Hits: 246595, Late: 1, Early: 0, Misses: 4
b0-> Hits: 15629, Late: 3556, Early: 0, Misses: 0
b1-> Hits: 4058, Late: 6, Early: 0, Misses: 0
b2-> Hits: 1333, Late: 1, Early: 0, Misses: 0
b3-> Hits: 0, Late: 2, Early: 0, Misses: 0
b4-> Hits: 9454, Late: 342, Early: 0, Misses: 0
b5-> Hits: 3278, Late: 0, Early: 0, Misses: 0
b6-> Hits: 2084, Late: 83, Early: 0, Misses: 7
b7-> Hits: 11109, Late: 0, Early: 0, Misses: 12
b8-> Hits: 583, Late: 0, Early: 0, Misses: 0
b9-> Hits: 99, Late: 0, Early: 0, Misses: 0
ba-> Hits: 5, Late: 0, Early: 0, Misses: 0
bb-> Hits: 1412, Late: 0, Early: 0, Misses: 0
bc-> Hits: 578, Late: 0, Early: 0, Misses: 0
bd-> Hits: 9426, Late: 326, Early: 0, Misses: 0
be-> Hits: 352, Late: 0, Early: 0, Misses: 0
bf-> Hits: 2431, Late: 0, Early: 0, Misses: 0
c0-> Hits: 28, Late: 2, Early: 0, Misses: 0
c1-> Hits: 1362, Late: 1, Early: 0, Misses: 6
c2-> Hits: 1621, Late: 0, Early: 0, Misses: 0
c3-> Hits: 10063, Late: 0, Early: 0, Misses: 5
c4-> Hits: 7243, Late: 403, Early: 0, Misses: 0
c5-> Hits: 2, Late: 0, Early: 0, Misses: 0
c6-> Hits: 362, Late: 0, Early: 0, Misses: 0
c7-> Hits: 431, Late: 0, Early: 0, Misses: 56
c8-> Hits: 19279, Late: 0, Early: 0, Misses: 0
c9-> Hits: 62, Late: 1, Early: 0, Misses: 0
ca-> Hits: 2237, Late: 31, Early: 0, Misses: 1
cb-> Hits: 86, Late: 0, Early: 0, Misses: 0
cc-> Hits: 425, Late: 1, Early: 0, Misses: 1
cd-> Hits: 3287, Late: 0, Early: 0, Misses: 0
ce-> Hits: 1625, Late: 7, Early: 0, Misses: 0
cf-> Hits: 14629, Late: 11, Early: 0, Misses: 2
d0-> Hits: 28172, Late: 3543, Early: 0, Misses: 55
d1-> Hits: 1138, Late: 8609, Early: 0, Misses: 0
d2-> Hits: 9420, Late: 0, Early: 0, Misses: 0
d3-> Hits: 3238, Late: 67, Early: 0, Misses: 0
d4-> Hits: 9731, Late: 0, Early: 0, Misses: 0
d5-> Hits: 24894, Late: 4823, Early: 0, Misses: 0
d6-> Hits: 60, Late: 0, Early: 0, Misses: 0
d7-> Hits: 10420, Late: 0, Early: 0, Misses: 0
d8-> Hits: 1646, Late: 1, Early: 0, Misses: 0
d9-> Hits: 1, Late: 0, Early: 0, Misses: 0
da-> Hits: 19071, Late: 27, Early: 0, Misses: 0
db-> Hits: 46, Late: 0, Early: 0, Misses: 15
dc-> Hits: 701, Late: 0, Early: 0, Misses: 2
dd-> Hits: 9530, Late: 421, Early: 0, Misses: 288
de-> Hits: 15307, Late: 0, Early: 0, Misses: 0
df-> Hits: 1687, Late: 306, Early: 0, Misses: 0
e0-> Hits: 38857, Late: 3956, Early: 0, Misses: 1
e1-> Hits: 1531, Late: 5, Early: 0, Misses: 3
e2-> Hits: 11879, Late: 692, Early: 0, Misses: 2
e3-> Hits: 1, Late: 1, Early: 0, Misses: 5
e4-> Hits: 1535, Late: 8571, Early: 0, Misses: 1
e5-> Hits: 57822, Late: 2104, Early: 0, Misses: 2
e6-> Hits: 2856, Late: 0, Early: 0, Misses: 0
e7-> Hits: 6, Late: 0, Early: 0, Misses: 0
e8-> Hits: 1818, Late: 6, Early: 0, Misses: 0
e9-> Hits: 7875, Late: 1924, Early: 0, Misses: 2
ea-> Hits: 5, Late: 0, Early: 0, Misses: 0
eb-> Hits: 248, Late: 1, Early: 0, Misses: 0
ec-> Hits: 420, Late: 0, Early: 0, Misses: 0
ed-> Hits: 7584, Late: 2277, Early: 0, Misses: 0
ee-> Hits: 1426, Late: 1, Early: 0, Misses: 1
ef-> Hits: 0, Late: 0, Early: 0, Misses: 1
f0-> Hits: 9456, Late: 2149, Early: 0, Misses: 0
f1-> Hits: 64, Late: 7, Early: 0, Misses: 0
f2-> Hits: 1, Late: 6, Early: 0, Misses: 0
f3-> Hits: 349, Late: 0, Early: 0, Misses: 0
f4-> Hits: 22519, Late: 8868, Early: 0, Misses: 0
f5-> Hits: 11474, Late: 20, Early: 0, Misses: 114
f6-> Hits: 164821, Late: 2, Early: 0, Misses: 0
f7-> Hits: 580, Late: 0, Early: 0, Misses: 0
f8-> Hits: 8512, Late: 1126, Early: 0, Misses: 0
f9-> Hits: 76, Late: 5, Early: 0, Misses: 0
fa-> Hits: 349, Late: 0, Early: 0, Misses: 0
fb-> Hits: 211928, Late: 1881, Early: 0, Misses: 0
fc-> Hits: 784, Late: 1, Early: 0, Misses: 0
fd-> Hits: 362, Late: 1, Early: 0, Misses: 82
fe-> Hits: 121, Late: 0, Early: 0, Misses: 0
ff-> Hits: 1, Late: 0, Early: 0, Misses: 0
100-> Hits: 168706, Late: 571, Early: 0, Misses: 0
101-> Hits: 11041, Late: 0, Early: 0, Misses: 0
102-> Hits: 1236, Late: 8600, Early: 0, Misses: 0
103-> Hits: 12868, Late: 86, Early: 0, Misses: 0
104-> Hits: 9, Late: 4, Early: 0, Misses: 0
105-> Hits: 1531, Late: 708, Early: 0, Misses: 122
106-> Hits: 94, Late: 27, Early: 0, Misses: 0
107-> Hits: 2072, Late: 0, Early: 0, Misses: 0
108-> Hits: 637, Late: 135, Early: 0, Misses: 0
109-> Hits: 1498, Late: 0, Early: 0, Misses: 1
10a-> Hits: 1620, Late: 0, Early: 0, Misses: 0
10b-> Hits: 783, Late: 1, Early: 0, Misses: 348
10c-> Hits: 22494, Late: 2262, Early: 0, Misses: 178
10d-> Hits: 1755, Late: 0, Early: 0, Misses: 0
10e-> Hits: 138607, Late: 2, Early: 0, Misses: 0
10f-> Hits: 6235, Late: 1488, Early: 0, Misses: 2
110-> Hits: 3146, Late: 19, Early: 0, Misses: 0
111-> Hits: 72, Late: 0, Early: 0, Misses: 0
112-> Hits: 6, Late: 24, Early: 0, Misses: 1
113-> Hits: 217769, Late: 2810, Early: 0, Misses: 0
114-> Hits: 326, Late: 0, Early: 0, Misses: 70
115-> Hits: 397, Late: 1, Early: 0, Misses: 1
116-> Hits: 3158, Late: 0, Early: 0, Misses: 0
117-> Hits: 6543, Late: 1319, Early: 0, Misses: 0
118-> Hits: 34104, Late: 2, Early: 0, Misses: 0
119-> Hits: 59, Late: 0, Early: 0, Misses: 0
11a-> Hits: 6, Late: 0, Early: 0, Misses: 0
11b-> Hits: 4707, Late: 0, Early: 0, Misses: 0
11c-> Hits: 329, Late: 3, Early: 0, Misses: 33
11d-> Hits: 399, Late: 0, Early: 0, Misses: 0
11e-> Hits: 154274, Late: 0, Early: 0, Misses: 2
11f-> Hits: 20, Late: 6, Early: 0, Misses: 0
120-> Hits: 2209, Late: 4, Early: 0, Misses: 0
121-> Hits: 182, Late: 0, Early: 0, Misses: 0
122-> Hits: 13464, Late: 0, Early: 0, Misses: 0
123-> Hits: 3321, Late: 1, Early: 0, Misses: 1
124-> Hits: 0, Late: 0, Early: 0, Misses: 4
125-> Hits: 484, Late: 3, Early: 0, Misses: 0
126-> Hits: 213426, Late: 45, Early: 0, Misses: 0
127-> Hits: 82, Late: 0, Early: 0, Misses: 0
128-> Hits: 12854, Late: 0, Early: 0, Misses: 0
129-> Hits: 1676, Late: 6, Early: 0, Misses: 5
12a-> Hits: 243586, Late: 0, Early: 0, Misses: 0
12b-> Hits: 357, Late: 0, Early: 0, Misses: 1
12c-> Hits: 9847, Late: 0, Early: 0, Misses: 2
12d-> Hits: 56, Late: 0, Early: 0, Misses: 15
12e-> Hits: 475, Late: 0, Early: 0, Misses: 0
12f-> Hits: 227767, Late: 0, Early: 0, Misses: 0
130-> Hits: 10334, Late: 3, Early: 0, Misses: 1
131-> Hits: 115, Late: 0, Early: 0, Misses: 0
132-> Hits: 19, Late: 0, Early: 0, Misses: 0
133-> Hits: 449, Late: 0, Early: 0, Misses: 0
134-> Hits: 2507, Late: 18, Early: 0, Misses: 0
135-> Hits: 83, Late: 0, Early: 0, Misses: 0
136-> Hits: 97, Late: 28, Early: 0, Misses: 0
137-> Hits: 270, Late: 0, Early: 0, Misses: 0
138-> Hits: 629, Late: 0, Early: 0, Misses: 0
139-> Hits: 2, Late: 1, Early: 0, Misses: 1
13a-> Hits: 9396, Late: 0, Early: 0, Misses: 1
13b-> Hits: 3706, Late: 0, Early: 0, Misses: 0
13c-> Hits: 522, Late: 0, Early: 0, Misses: 3
13d-> Hits: 82, Late: 0, Early: 0, Misses: 2
13e-> Hits: 5, Late: 2, Early: 0, Misses: 0
13f-> Hits: 61, Late: 0, Early: 0, Misses: 0
140-> Hits: 13470, Late: 897, Early: 0, Misses: 1
141-> Hits: 65, Late: 0, Early: 0, Misses: 1
142-> Hits: 71, Late: 0, Early: 0, Misses: 0
143-> Hits: 5626, Late: 2, Early: 0, Misses: 0
144-> Hits: 17, Late: 2, Early: 0, Misses: 0
145-> Hits: 2052, Late: 1, Early: 0, Misses: 3
146-> Hits: 4801, Late: 0, Early: 0, Misses: 4
147-> Hits: 3128, Late: 1, Early: 0, Misses: 0
148-> Hits: 73, Late: 13, Early: 0, Misses: 1
149-> Hits: 12969, Late: 2, Early: 0, Misses: 4
14a-> Hits: 1159, Late: 20, Early: 0, Misses: 0
14b-> Hits: 1437, Late: 187, Early: 0, Misses: 0
14c-> Hits: 9537, Late: 0, Early: 0, Misses: 0
14d-> Hits: 755, Late: 0, Early: 0, Misses: 354
14e-> Hits: 3846, Late: 3, Early: 0, Misses: 0
14f-> Hits: 8603, Late: 0, Early: 0, Misses: 0
150-> Hits: 188046, Late: 8, Early: 0, Misses: 0
151-> Hits: 3531, Late: 0, Early: 0, Misses: 0
152-> Hits: 3119, Late: 0, Early: 0, Misses: 0
153-> Hits: 2554, Late: 577, Early: 0, Misses: 356
154-> Hits: 178, Late: 0, Early: 0, Misses: 2
155-> Hits: 15, Late: 0, Early: 0, Misses: 354
156-> Hits: 69, Late: 2, Early: 0, Misses: 0
157-> Hits: 591, Late: 0, Early: 0, Misses: 0
158-> Hits: 4981, Late: 25, Early: 0, Misses: 0
159-> Hits: 264, Late: 0, Early: 0, Misses: 0
15a-> Hits: 3, Late: 0, Early: 0, Misses: 0
15b-> Hits: 518, Late: 0, Early: 0, Misses: 5
15c-> Hits: 3251, Late: 0, Early: 0, Misses: 0
15d-> Hits: 1771, Late: 61, Early: 0, Misses: 0
15e-> Hits: 390, Late: 0, Early: 0, Misses: 2
15f-> Hits: 419, Late: 8, Early: 0, Misses: 0
160-> Hits: 47457, Late: 6175, Early: 0, Misses: 0
161-> Hits: 1571, Late: 2, Early: 0, Misses: 0
162-> Hits: 4, Late: 0, Early: 0, Misses: 0
163-> Hits: 3368, Late: 0, Early: 0, Misses: 1
164-> Hits: 15710, Late: 3431, Early: 0, Misses: 55
165-> Hits: 660, Late: 316, Early: 0, Misses: 138
166-> Hits: 184, Late: 0, Early: 0, Misses: 3
167-> Hits: 3249, Late: 2, Early: 0, Misses: 8
168-> Hits: 111, Late: 0, Early: 0, Misses: 0
169-> Hits: 272709, Late: 10214, Early: 0, Misses: 0
16a-> Hits: 22, Late: 0, Early: 0, Misses: 0
16b-> Hits: 3608, Late: 0, Early: 0, Misses: 0
16c-> Hits: 10882, Late: 0, Early: 0, Misses: 2
16d-> Hits: 12831, Late: 6297, Early: 0, Misses: 0
16e-> Hits: 3306, Late: 0, Early: 0, Misses: 0
16f-> Hits: 3, Late: 0, Early: 0, Misses: 0
170-> Hits: 558923, Late: 56, Early: 0, Misses: 2738
171-> Hits: 4974, Late: 2, Early: 0, Misses: 53
172-> Hits: 9412, Late: 0, Early: 0, Misses: 1
173-> Hits: 3022, Late: 0, Early: 0, Misses: 0
174-> Hits: 12074, Late: 0, Early: 0, Misses: 16
175-> Hits: 546405, Late: 11112, Early: 0, Misses: 2
176-> Hits: 421, Late: 0, Early: 0, Misses: 0
177-> Hits: 2, Late: 2, Early: 0, Misses: 0
178-> Hits: 12, Late: 0, Early: 0, Misses: 0
179-> Hits: 21, Late: 1, Early: 0, Misses: 0
17a-> Hits: 554663, Late: 1903, Early: 0, Misses: 296
17b-> Hits: 3, Late: 0, Early: 0, Misses: 0
17c-> Hits: 9592, Late: 1, Early: 0, Misses: 0
17d-> Hits: 3343, Late: 171, Early: 0, Misses: 0
17e-> Hits: 484, Late: 3, Early: 0, Misses: 58
17f-> Hits: 6, Late: 0, Early: 0, Misses: 1
180-> Hits: 1043, Late: 168, Early: 0, Misses: 1
181-> Hits: 3352, Late: 5, Early: 0, Misses: 0
182-> Hits: 1, Late: 6, Early: 0, Misses: 0
183-> Hits: 1765, Late: 1, Early: 0, Misses: 52
184-> Hits: 467521, Late: 9104, Early: 0, Misses: 38
185-> Hits: 303, Late: 2, Early: 0, Misses: 0
186-> Hits: 63, Late: 0, Early: 0, Misses: 0
187-> Hits: 1595, Late: 0, Early: 0, Misses: 0
188-> Hits: 399, Late: 0, Early: 0, Misses: 0
189-> Hits: 3, Late: 0, Early: 0, Misses: 0
18a-> Hits: 3158, Late: 8, Early: 0, Misses: 119
18b-> Hits: 58, Late: 0, Early: 0, Misses: 0
18c-> Hits: 76, Late: 1, Early: 0, Misses: 1
18d-> Hits: 306, Late: 0, Early: 0, Misses: 0
18e-> Hits: 30, Late: 0, Early: 0, Misses: 2
18f-> Hits: 7, Late: 0, Early: 0, Misses: 0
190-> Hits: 155398, Late: 820, Early: 0, Misses: 3114
191-> Hits: 4, Late: 1, Early: 0, Misses: 0
192-> Hits: 3462, Late: 15, Early: 0, Misses: 0
193-> Hits: 9202, Late: 0, Early: 0, Misses: 2
194-> Hits: 2, Late: 0, Early: 0, Misses: 0
195-> Hits: 151751, Late: 0, Early: 0, Misses: 271
196-> Hits: 60, Late: 2, Early: 0, Misses: 0
197-> Hits: 20, Late: 1, Early: 0, Misses: 2
198-> Hits: 8, Late: 7, Early: 0, Misses: 1
199-> Hits: 152572, Late: 0, Early: 0, Misses: 254
19a-> Hits: 4, Late: 1, Early: 0, Misses: 0
19b-> Hits: 5, Late: 0, Early: 0, Misses: 0
19c-> Hits: 118, Late: 0, Early: 0, Misses: 0
19d-> Hits: 3471, Late: 0, Early: 0, Misses: 0
19e-> Hits: 29, Late: 0, Early: 0, Misses: 0
19f-> Hits: 12321, Late: 0, Early: 0, Misses: 0
1a0-> Hits: 1611, Late: 13, Early: 0, Misses: 1
1a1-> Hits: 94, Late: 1, Early: 0, Misses: 0
1a2-> Hits: 2, Late: 0, Early: 0, Misses: 0
1a3-> Hits: 63, Late: 0, Early: 0, Misses: 0
1a4-> Hits: 145717, Late: 10053, Early: 0, Misses: 96
1a5-> Hits: 11601, Late: 0, Early: 0, Misses: 0
1a6-> Hits: 239, Late: 0, Early: 0, Misses: 116
1a7-> Hits: 3, Late: 0, Early: 0, Misses: 0
1a8-> Hits: 15, Late: 0, Early: 0, Misses: 7
1a9-> Hits: 150526, Late: 1630, Early: 0, Misses: 1374
1aa-> Hits: 3303, Late: 0, Early: 0, Misses: 0
1ab-> Hits: 376, Late: 1, Early: 0, Misses: 0
1ac-> Hits: 1817, Late: 3, Early: 0, Misses: 180
1ad-> Hits: 3197, Late: 0, Early: 0, Misses: 0
1ae-> Hits: 1, Late: 0, Early: 0, Misses: 0
1af-> Hits: 720, Late: 2, Early: 0, Misses: 0
1b0-> Hits: 110, Late: 1, Early: 0, Misses: 13
1b1-> Hits: 9564, Late: 0, Early: 0, Misses: 0
1b2-> Hits: 0, Late: 0, Early: 0, Misses: 1
1b3-> Hits: 151989, Late: 462, Early: 0, Misses: 95
1b4-> Hits: 2, Late: 0, Early: 0, Misses: 1
1b5-> Hits: 202, Late: 0, Early: 0, Misses: 218
1b6-> Hits: 7, Late: 0, Early: 0, Misses: 0
1b7-> Hits: 156125, Late: 0, Early: 0, Misses: 0
1b8-> Hits: 360, Late: 0, Early: 0, Misses: 0
1b9-> Hits: 10, Late: 0, Early: 0, Misses: 0
1ba-> Hits: 104, Late: 0, Early: 0, Misses: 17
1bb-> Hits: 3502, Late: 2, Early: 0, Misses: 40
1bc-> Hits: 4661, Late: 2, Early: 0, Misses: 0
1bd-> Hits: 9798, Late: 0, Early: 0, Misses: 0
1be-> Hits: 58, Late: 0, Early: 0, Misses: 0
1bf-> Hits: 6, Late: 0, Early: 0, Misses: 1
1c0-> Hits: 5232, Late: 1, Early: 0, Misses: 0
1c1-> Hits: 162830, Late: 970, Early: 0, Misses: 744
1c2-> Hits: 3335, Late: 0, Early: 0, Misses: 0
1c3-> Hits: 34, Late: 3, Early: 0, Misses: 0
1c4-> Hits: 8426, Late: 75, Early: 0, Misses: 16
1c5-> Hits: 154, Late: 0, Early: 0, Misses: 0
1c6-> Hits: 154333, Late: 1010, Early: 0, Misses: 40
1c7-> Hits: 80, Late: 0, Early: 0, Misses: 0
1c8-> Hits: 3252, Late: 5, Early: 0, Misses: 2
1c9-> Hits: 68, Late: 0, Early: 0, Misses: 0
1ca-> Hits: 6658, Late: 63, Early: 0, Misses: 0
1cb-> Hits: 437, Late: 3, Early: 0, Misses: 0
1cc-> Hits: 414, Late: 0, Early: 0, Misses: 0
1cd-> Hits: 5530, Late: 68, Early: 0, Misses: 2
1ce-> Hits: 1678, Late: 0, Early: 0, Misses: 0
1cf-> Hits: 11, Late: 0, Early: 0, Misses: 1
1d0-> Hits: 39118, Late: 9944, Early: 0, Misses: 2
1d1-> Hits: 402, Late: 0, Early: 0, Misses: 33
1d2-> Hits: 1571, Late: 0, Early: 0, Misses: 24
1d3-> Hits: 599, Late: 0, Early: 0, Misses: 0
1d4-> Hits: 7, Late: 0, Early: 0, Misses: 0
1d5-> Hits: 13233, Late: 0, Early: 0, Misses: 0
1d6-> Hits: 1567, Late: 0, Early: 0, Misses: 0
1d7-> Hits: 1451, Late: 0, Early: 0, Misses: 0
1d8-> Hits: 29722, Late: 3600, Early: 0, Misses: 0
1d9-> Hits: 3151, Late: 0, Early: 0, Misses: 38
1da-> Hits: 344, Late: 0, Early: 0, Misses: 6
1db-> Hits: 3121, Late: 0, Early: 0, Misses: 0
1dc-> Hits: 142, Late: 1, Early: 0, Misses: 0
1dd-> Hits: 267, Late: 10, Early: 0, Misses: 0
1de-> Hits: 10735, Late: 0, Early: 0, Misses: 228
1df-> Hits: 4786, Late: 0, Early: 0, Misses: 2
1e0-> Hits: 1881, Late: 2313, Early: 0, Misses: 0
1e1-> Hits: 10, Late: 2, Early: 0, Misses: 0
1e2-> Hits: 64, Late: 0, Early: 0, Misses: 0
1e3-> Hits: 339, Late: 0, Early: 0, Misses: 0
1e4-> Hits: 4595, Late: 0, Early: 0, Misses: 236
1e5-> Hits: 3296, Late: 137, Early: 0, Misses: 202
1e6-> Hits: 2, Late: 0, Early: 0, Misses: 0
1e7-> Hits: 1, Late: 0, Early: 0, Misses: 0
1e8-> Hits: 3, Late: 0, Early: 0, Misses: 0
1e9-> Hits: 3277, Late: 1, Early: 0, Misses: 0
1ea-> Hits: 53, Late: 0, Early: 0, Misses: 0
1eb-> Hits: 422, Late: 0, Early: 0, Misses: 0
1ec-> Hits: 3145, Late: 1, Early: 0, Misses: 1
1ed-> Hits: 2, Late: 1, Early: 0, Misses: 0
1ee-> Hits: 4572, Late: 1150, Early: 0, Misses: 0
1ef-> Hits: 568, Late: 2, Early: 0, Misses: 0
1f0-> Hits: 9982, Late: 13, Early: 0, Misses: 0
1f1-> Hits: 58, Late: 0, Early: 0, Misses: 0
1f2-> Hits: 11073, Late: 83, Early: 0, Misses: 7
1f3-> Hits: 504, Late: 0, Early: 0, Misses: 0
1f4-> Hits: 100, Late: 0, Early: 0, Misses: 5
1f5-> Hits: 50, Late: 0, Early: 0, Misses: 0
1f6-> Hits: 3387, Late: 26, Early: 0, Misses: 0
1f7-> Hits: 1914, Late: 1, Early: 0, Misses: 72
1f8-> Hits: 131, Late: 13, Early: 0, Misses: 1
1f9-> Hits: 61, Late: 2, Early: 0, Misses: 0
1fa-> Hits: 9432, Late: 1, Early: 0, Misses: 1
1fb-> Hits: 144, Late: 2, Early: 0, Misses: 4
1fc-> Hits: 8401, Late: 0, Early: 0, Misses: 0
1fd-> Hits: 57, Late: 54, Early: 0, Misses: 294
1fe-> Hits: 6, Late: 0, Early: 0, Misses: 0
1ff-> Hits: 4, Late: 0, Early: 0, Misses: 0
200-> Hits: 694021, Late: 1195, Early: 0, Misses: 1
201-> Hits: 57, Late: 9, Early: 0, Misses: 3
202-> Hits: 9597, Late: 2, Early: 0, Misses: 1
203-> Hits: 9, Late: 3, Early: 0, Misses: 0
204-> Hits: 568413, Late: 52585, Early: 0, Misses: 2
205-> Hits: 3353, Late: 2, Early: 0, Misses: 354
206-> Hits: 69, Late: 0, Early: 0, Misses: 0
207-> Hits: 7, Late: 0, Early: 0, Misses: 0
208-> Hits: 528540, Late: 0, Early: 0, Misses: 0
209-> Hits: 9914, Late: 2, Early: 0, Misses: 2
20a-> Hits: 3809, Late: 7, Early: 0, Misses: 26
20b-> Hits: 1630, Late: 0, Early: 0, Misses: 0
20c-> Hits: 1595, Late: 0, Early: 0, Misses: 0
20d-> Hits: 35, Late: 6, Early: 0, Misses: 90
20e-> Hits: 1640, Late: 0, Early: 0, Misses: 0
20f-> Hits: 9384, Late: 0, Early: 0, Misses: 254
210-> Hits: 141157, Late: 166, Early: 0, Misses: 98
211-> Hits: 9721, Late: 0, Early: 0, Misses: 6
212-> Hits: 2, Late: 0, Early: 0, Misses: 0
213-> Hits: 2706, Late: 0, Early: 0, Misses: 0
214-> Hits: 3196, Late: 0, Early: 0, Misses: 0
215-> Hits: 356, Late: 0, Early: 0, Misses: 0
216-> Hits: 12602, Late: 0, Early: 0, Misses: 122
217-> Hits: 334, Late: 9, Early: 0, Misses: 0
218-> Hits: 66, Late: 0, Early: 0, Misses: 0
219-> Hits: 56, Late: 0, Early: 0, Misses: 0
21a-> Hits: 349, Late: 0, Early: 0, Misses: 0
21b-> Hits: 19936, Late: 3824, Early: 0, Misses: 1
21c-> Hits: 13473, Late: 0, Early: 0, Misses: 117
21d-> Hits: 8, Late: 0, Early: 0, Misses: 0
21e-> Hits: 3120, Late: 1, Early: 0, Misses: 1
21f-> Hits: 306, Late: 0, Early: 0, Misses: 0
220-> Hits: 29475, Late: 84, Early: 0, Misses: 370
221-> Hits: 1522, Late: 88, Early: 0, Misses: 0
222-> Hits: 9861, Late: 11, Early: 0, Misses: 135
223-> Hits: 3525, Late: 18, Early: 0, Misses: 0
224-> Hits: 1166, Late: 0, Early: 0, Misses: 0
225-> Hits: 1, Late: 0, Early: 0, Misses: 1
226-> Hits: 1459, Late: 0, Early: 0, Misses: 57
227-> Hits: 18112, Late: 0, Early: 0, Misses: 118
228-> Hits: 19683, Late: 4494, Early: 0, Misses: 61
229-> Hits: 185, Late: 0, Early: 0, Misses: 1
22a-> Hits: 32, Late: 0, Early: 0, Misses: 1
22b-> Hits: 3153, Late: 0, Early: 0, Misses: 39
22c-> Hits: 2431, Late: 0, Early: 0, Misses: 0
22d-> Hits: 24660, Late: 31, Early: 0, Misses: 0
22e-> Hits: 1522, Late: 2, Early: 0, Misses: 129
22f-> Hits: 8773, Late: 0, Early: 0, Misses: 0
230-> Hits: 625187, Late: 15241, Early: 0, Misses: 4
231-> Hits: 61, Late: 0, Early: 0, Misses: 0
232-> Hits: 95, Late: 0, Early: 0, Misses: 0
233-> Hits: 1305, Late: 0, Early: 0, Misses: 0
234-> Hits: 7243, Late: 1, Early: 0, Misses: 6
235-> Hits: 70, Late: 0, Early: 0, Misses: 0
236-> Hits: 627123, Late: 274, Early: 0, Misses: 1
237-> Hits: 3013, Late: 0, Early: 0, Misses: 0
238-> Hits: 203, Late: 0, Early: 0, Misses: 0
239-> Hits: 3128, Late: 0, Early: 0, Misses: 0
23a-> Hits: 318, Late: 0, Early: 0, Misses: 0
23b-> Hits: 1837, Late: 107, Early: 0, Misses: 0
23c-> Hits: 3632, Late: 59, Early: 0, Misses: 0
23d-> Hits: 48713, Late: 390, Early: 0, Misses: 0
23e-> Hits: 8489, Late: 7259, Early: 0, Misses: 1
23f-> Hits: 1325, Late: 13, Early: 0, Misses: 0
240-> Hits: 1959, Late: 0, Early: 0, Misses: 0
241-> Hits: 1926, Late: 0, Early: 0, Misses: 230
242-> Hits: 118382, Late: 1, Early: 0, Misses: 0
243-> Hits: 13092, Late: 0, Early: 0, Misses: 0
244-> Hits: 59687, Late: 1092, Early: 0, Misses: 57
245-> Hits: 936, Late: 106, Early: 0, Misses: 0
246-> Hits: 2744, Late: 48, Early: 0, Misses: 0
247-> Hits: 2719, Late: 0, Early: 0, Misses: 3
248-> Hits: 1581, Late: 1, Early: 0, Misses: 71
249-> Hits: 79, Late: 6, Early: 0, Misses: 277
24a-> Hits: 1541, Late: 1, Early: 0, Misses: 2
24b-> Hits: 41984, Late: 1381, Early: 0, Misses: 0
24c-> Hits: 3233, Late: 0, Early: 0, Misses: 44
24d-> Hits: 353, Late: 0, Early: 0, Misses: 0
24e-> Hits: 82, Late: 0, Early: 0, Misses: 2
24f-> Hits: 806, Late: 0, Early: 0, Misses: 1
250-> Hits: 198973, Late: 1420, Early: 0, Misses: 1
251-> Hits: 42339, Late: 1806, Early: 0, Misses: 0
252-> Hits: 316, Late: 6, Early: 0, Misses: 0
253-> Hits: 126354, Late: 1, Early: 0, Misses: 0
254-> Hits: 114, Late: 787, Early: 0, Misses: 0
255-> Hits: 187624, Late: 0, Early: 0, Misses: 1
256-> Hits: 70, Late: 0, Early: 0, Misses: 1
257-> Hits: 1476, Late: 1, Early: 0, Misses: 1
258-> Hits: 41625, Late: 2534, Early: 0, Misses: 1
259-> Hits: 123, Late: 0, Early: 0, Misses: 1
25a-> Hits: 1563, Late: 1, Early: 0, Misses: 2
25b-> Hits: 86, Late: 45, Early: 0, Misses: 45
25c-> Hits: 367, Late: 0, Early: 0, Misses: 0
25d-> Hits: 3, Late: 0, Early: 0, Misses: 0
25e-> Hits: 74, Late: 61, Early: 0, Misses: 1
25f-> Hits: 366730, Late: 1317, Early: 0, Misses: 907
260-> Hits: 690, Late: 6, Early: 0, Misses: 1
261-> Hits: 110, Late: 0, Early: 0, Misses: 23
262-> Hits: 4640, Late: 0, Early: 0, Misses: 0
263-> Hits: 165212, Late: 0, Early: 0, Misses: 0
264-> Hits: 560, Late: 128, Early: 0, Misses: 0
265-> Hits: 591, Late: 0, Early: 0, Misses: 0
266-> Hits: 1552, Late: 107, Early: 0, Misses: 342
267-> Hits: 97474, Late: 6, Early: 0, Misses: 2
268-> Hits: 10958, Late: 0, Early: 0, Misses: 0
269-> Hits: 193, Late: 27, Early: 0, Misses: 0
26a-> Hits: 487, Late: 573, Early: 0, Misses: 0
26b-> Hits: 1332, Late: 52, Early: 0, Misses: 0
26c-> Hits: 3355, Late: 0, Early: 0, Misses: 1
26d-> Hits: 193996, Late: 600, Early: 0, Misses: 0
26e-> Hits: 10003, Late: 0, Early: 0, Misses: 0
26f-> Hits: 65, Late: 6, Early: 0, Misses: 342
270-> Hits: 1890, Late: 95, Early: 0, Misses: 0
271-> Hits: 161347, Late: 1549, Early: 0, Misses: 0
272-> Hits: 731, Late: 159, Early: 0, Misses: 0
273-> Hits: 4236, Late: 4, Early: 0, Misses: 75
274-> Hits: 143, Late: 1, Early: 0, Misses: 0
275-> Hits: 359, Late: 0, Early: 0, Misses: 0
276-> Hits: 1823, Late: 6, Early: 0, Misses: 7
277-> Hits: 120, Late: 0, Early: 0, Misses: 1
278-> Hits: 1233, Late: 11, Early: 0, Misses: 0
279-> Hits: 66, Late: 0, Early: 0, Misses: 0
27a-> Hits: 8562, Late: 6, Early: 0, Misses: 0
27b-> Hits: 4237, Late: 2, Early: 0, Misses: 2
27c-> Hits: 1600, Late: 2, Early: 0, Misses: 1
27d-> Hits: 1551, Late: 2, Early: 0, Misses: 0
27e-> Hits: 26357, Late: 0, Early: 0, Misses: 5
27f-> Hits: 8, Late: 15, Early: 0, Misses: 0
280-> Hits: 991, Late: 14, Early: 0, Misses: 0
281-> Hits: 122, Late: 1, Early: 0, Misses: 4
282-> Hits: 1601, Late: 3, Early: 0, Misses: 0
283-> Hits: 1661, Late: 1, Early: 0, Misses: 8
284-> Hits: 353, Late: 57, Early: 0, Misses: 1
285-> Hits: 709, Late: 0, Early: 0, Misses: 0
286-> Hits: 159857, Late: 5818, Early: 0, Misses: 0
287-> Hits: 96, Late: 0, Early: 0, Misses: 0
288-> Hits: 61, Late: 6, Early: 0, Misses: 1
289-> Hits: 2070, Late: 0, Early: 0, Misses: 7
28a-> Hits: 3243, Late: 6, Early: 0, Misses: 0
28b-> Hits: 191898, Late: 169, Early: 0, Misses: 0
28c-> Hits: 9, Late: 2, Early: 0, Misses: 5
28d-> Hits: 3222, Late: 0, Early: 0, Misses: 0
28e-> Hits: 629674, Late: 1, Early: 0, Misses: 7
28f-> Hits: 13085, Late: 33, Early: 0, Misses: 1
290-> Hits: 109457, Late: 18870, Early: 0, Misses: 8
291-> Hits: 184711, Late: 0, Early: 0, Misses: 5
292-> Hits: 8773, Late: 43, Early: 0, Misses: 0
293-> Hits: 6541, Late: 1754, Early: 0, Misses: 126
294-> Hits: 99525, Late: 20952, Early: 0, Misses: 0
295-> Hits: 1681, Late: 111, Early: 0, Misses: 0
296-> Hits: 66, Late: 27, Early: 0, Misses: 4
297-> Hits: 11342, Late: 3, Early: 0, Misses: 1
298-> Hits: 98, Late: 2, Early: 0, Misses: 0
299-> Hits: 0, Late: 1, Early: 0, Misses: 0
29a-> Hits: 592818, Late: 0, Early: 0, Misses: 6
29b-> Hits: 474, Late: 0, Early: 0, Misses: 2
29c-> Hits: 1525, Late: 2, Early: 0, Misses: 0
29d-> Hits: 3294, Late: 2021, Early: 0, Misses: 5
29e-> Hits: 10458, Late: 84, Early: 0, Misses: 0
29f-> Hits: 103727, Late: 20081, Early: 0, Misses: 0
2a0-> Hits: 3992, Late: 0, Early: 0, Misses: 2
2a1-> Hits: 10, Late: 0, Early: 0, Misses: 6
2a2-> Hits: 1052, Late: 0, Early: 0, Misses: 3
2a3-> Hits: 98456, Late: 24656, Early: 0, Misses: 0
2a4-> Hits: 1320, Late: 1, Early: 0, Misses: 1
2a5-> Hits: 0, Late: 6, Early: 0, Misses: 0
2a6-> Hits: 650605, Late: 0, Early: 0, Misses: 8
2a7-> Hits: 13512, Late: 0, Early: 0, Misses: 2
2a8-> Hits: 3934, Late: 6, Early: 0, Misses: 0
2a9-> Hits: 29046, Late: 367, Early: 0, Misses: 0
2aa-> Hits: 9, Late: 0, Early: 0, Misses: 0
2ab-> Hits: 187, Late: 7, Early: 0, Misses: 0
2ac-> Hits: 304, Late: 1, Early: 0, Misses: 0
2ad-> Hits: 8, Late: 0, Early: 0, Misses: 0
2ae-> Hits: 625371, Late: 1, Early: 0, Misses: 5
2af-> Hits: 100930, Late: 23229, Early: 0, Misses: 0
2b0-> Hits: 191, Late: 35, Early: 0, Misses: 0
2b1-> Hits: 11, Late: 0, Early: 0, Misses: 0
2b2-> Hits: 6, Late: 0, Early: 0, Misses: 2
2b3-> Hits: 309, Late: 0, Early: 0, Misses: 0
2b4-> Hits: 9, Late: 0, Early: 0, Misses: 0
2b5-> Hits: 95933, Late: 25452, Early: 0, Misses: 1
2b6-> Hits: 3939, Late: 0, Early: 0, Misses: 2
2b7-> Hits: 13160, Late: 10, Early: 0, Misses: 0
2b8-> Hits: 15, Late: 0, Early: 0, Misses: 3
2b9-> Hits: 483, Late: 0, Early: 0, Misses: 1
2ba-> Hits: 118274, Late: 1, Early: 0, Misses: 0
2bb-> Hits: 159110, Late: 1822, Early: 0, Misses: 4
2bc-> Hits: 557, Late: 0, Early: 0, Misses: 0
2bd-> Hits: 1042, Late: 0, Early: 0, Misses: 1
2be-> Hits: 21, Late: 0, Early: 0, Misses: 1
2bf-> Hits: 51, Late: 1, Early: 0, Misses: 1
2c0-> Hits: 18, Late: 13, Early: 0, Misses: 1
2c1-> Hits: 1388, Late: 0, Early: 0, Misses: 2
2c2-> Hits: 24, Late: 1, Early: 0, Misses: 1
2c3-> Hits: 325, Late: 5, Early: 0, Misses: 1
2c4-> Hits: 53, Late: 0, Early: 0, Misses: 0
2c5-> Hits: 10, Late: 0, Early: 0, Misses: 1
2c6-> Hits: 10, Late: 0, Early: 0, Misses: 4
2c7-> Hits: 4915, Late: 0, Early: 0, Misses: 2
2c8-> Hits: 1, Late: 0, Early: 0, Misses: 0
2c9-> Hits: 168, Late: 6, Early: 0, Misses: 0
2ca-> Hits: 25614, Late: 297, Early: 0, Misses: 1
2cb-> Hits: 177111, Late: 0, Early: 0, Misses: 4
2cc-> Hits: 1635, Late: 0, Early: 0, Misses: 5
2cd-> Hits: 4352, Late: 0, Early: 0, Misses: 0
2ce-> Hits: 7, Late: 0, Early: 0, Misses: 0
2cf-> Hits: 1459, Late: 3, Early: 0, Misses: 132
2d0-> Hits: 191560, Late: 280, Early: 0, Misses: 0
2d1-> Hits: 1473, Late: 0, Early: 0, Misses: 0
2d3-> Hits: 490489, Late: 0, Early: 0, Misses: 8
2d4-> Hits: 1352, Late: 0, Early: 0, Misses: 1
2d5-> Hits: 171411, Late: 18553, Early: 0, Misses: 56
2d6-> Hits: 149363, Late: 6695, Early: 0, Misses: 0
2d7-> Hits: 8511, Late: 0, Early: 0, Misses: 0
2d8-> Hits: 1001, Late: 6, Early: 0, Misses: 0
2d9-> Hits: 3956, Late: 0, Early: 0, Misses: 0
2da-> Hits: 1877, Late: 242, Early: 0, Misses: 5
2db-> Hits: 19964, Late: 551, Early: 0, Misses: 0
2dc-> Hits: 184904, Late: 3992, Early: 0, Misses: 0
2df-> Hits: 10624, Late: 0, Early: 0, Misses: 2
2e0-> Hits: 67, Late: 7, Early: 0, Misses: 0
2e1-> Hits: 104, Late: 25, Early: 0, Misses: 1
2e2-> Hits: 356, Late: 6, Early: 0, Misses: 0
2e3-> Hits: 151915, Late: 6069, Early: 0, Misses: 0
2e4-> Hits: 60, Late: 0, Early: 0, Misses: 2
2e5-> Hits: 1595, Late: 0, Early: 0, Misses: 0
2e6-> Hits: 61, Late: 0, Early: 0, Misses: 60
2e7-> Hits: 214440, Late: 678, Early: 0, Misses: 1
2e8-> Hits: 1165, Late: 15, Early: 0, Misses: 28
2e9-> Hits: 3920, Late: 18, Early: 0, Misses: 0
2ea-> Hits: 13, Late: 0, Early: 0, Misses: 0
2ec-> Hits: 782, Late: 1, Early: 0, Misses: 0
2ed-> Hits: 74, Late: 0, Early: 0, Misses: 0
2ee-> Hits: 45, Late: 1, Early: 0, Misses: 80
2ef-> Hits: 6, Late: 0, Early: 0, Misses: 0
2f0-> Hits: 31796, Late: 4, Early: 0, Misses: 1
2f1-> Hits: 8, Late: 0, Early: 0, Misses: 0
2f2-> Hits: 14, Late: 0, Early: 0, Misses: 0
2f3-> Hits: 993, Late: 0, Early: 0, Misses: 0
2f4-> Hits: 153438, Late: 5904, Early: 0, Misses: 0
2f5-> Hits: 9838, Late: 0, Early: 0, Misses: 0
2f6-> Hits: 26825, Late: 2, Early: 0, Misses: 4
2f7-> Hits: 1625, Late: 0, Early: 0, Misses: 0
2f8-> Hits: 86, Late: 2, Early: 0, Misses: 0
2f9-> Hits: 12417, Late: 1447, Early: 0, Misses: 0
2fa-> Hits: 482, Late: 0, Early: 0, Misses: 1
2fb-> Hits: 1723, Late: 3, Early: 0, Misses: 110
2fc-> Hits: 5, Late: 0, Early: 0, Misses: 0
2fd-> Hits: 51, Late: 0, Early: 0, Misses: 1
2fe-> Hits: 56, Late: 0, Early: 0, Misses: 0
2ff-> Hits: 2152, Late: 526, Early: 0, Misses: 0
300-> Hits: 5018, Late: 808, Early: 0, Misses: 0
301-> Hits: 175655, Late: 8571, Early: 0, Misses: 0
302-> Hits: 8, Late: 0, Early: 0, Misses: 0
303-> Hits: 471, Late: 4, Early: 0, Misses: 0
304-> Hits: 1120, Late: 328, Early: 0, Misses: 0
305-> Hits: 4, Late: 0, Early: 0, Misses: 1
306-> Hits: 38796, Late: 1346, Early: 0, Misses: 138
307-> Hits: 3179, Late: 752, Early: 0, Misses: 0
308-> Hits: 22502, Late: 0, Early: 0, Misses: 0
309-> Hits: 1, Late: 0, Early: 0, Misses: 0
30a-> Hits: 11346, Late: 0, Early: 0, Misses: 0
30b-> Hits: 798, Late: 337, Early: 0, Misses: 0
30c-> Hits: 458, Late: 0, Early: 0, Misses: 0
30d-> Hits: 2, Late: 54, Early: 0, Misses: 1
30e-> Hits: 1030, Late: 25, Early: 0, Misses: 0
30f-> Hits: 35541, Late: 122, Early: 0, Misses: 46
310-> Hits: 14028, Late: 43, Early: 0, Misses: 0
312-> Hits: 247, Late: 1, Early: 0, Misses: 0
313-> Hits: 3, Late: 0, Early: 0, Misses: 2
314-> Hits: 35879, Late: 0, Early: 0, Misses: 2
315-> Hits: 570, Late: 116, Early: 0, Misses: 8
316-> Hits: 1859, Late: 0, Early: 0, Misses: 0
317-> Hits: 1862, Late: 1, Early: 0, Misses: 0
318-> Hits: 9249, Late: 0, Early: 0, Misses: 2
319-> Hits: 2, Late: 0, Early: 0, Misses: 0
31a-> Hits: 1526, Late: 0, Early: 0, Misses: 0
31b-> Hits: 1, Late: 0, Early: 0, Misses: 0
31c-> Hits: 9767, Late: 0, Early: 0, Misses: 0
31d-> Hits: 11373, Late: 0, Early: 0, Misses: 29
31e-> Hits: 705, Late: 53, Early: 0, Misses: 0
31f-> Hits: 27936, Late: 187, Early: 0, Misses: 194
320-> Hits: 10395, Late: 99099, Early: 0, Misses: 0
321-> Hits: 92, Late: 0, Early: 0, Misses: 30
322-> Hits: 851, Late: 0, Early: 0, Misses: 0
323-> Hits: 140, Late: 1, Early: 0, Misses: 3
324-> Hits: 21212, Late: 0, Early: 0, Misses: 0
325-> Hits: 26385, Late: 86, Early: 0, Misses: 2
326-> Hits: 148, Late: 0, Early: 0, Misses: 0
327-> Hits: 5560, Late: 0, Early: 0, Misses: 0
328-> Hits: 2, Late: 0, Early: 0, Misses: 0
329-> Hits: 937, Late: 0, Early: 0, Misses: 0
32a-> Hits: 1976, Late: 3838, Early: 0, Misses: 0
32b-> Hits: 9068, Late: 342, Early: 0, Misses: 0
32c-> Hits: 175, Late: 2, Early: 0, Misses: 0
32d-> Hits: 1581, Late: 0, Early: 0, Misses: 0
32e-> Hits: 149, Late: 0, Early: 0, Misses: 0
32f-> Hits: 1524, Late: 1, Early: 0, Misses: 57
330-> Hits: 10882, Late: 6, Early: 0, Misses: 1
331-> Hits: 96, Late: 0, Early: 0, Misses: 0
332-> Hits: 2035, Late: 0, Early: 0, Misses: 0
333-> Hits: 46652, Late: 0, Early: 0, Misses: 0
334-> Hits: 15673, Late: 7299, Early: 0, Misses: 0
335-> Hits: 274, Late: 40, Early: 0, Misses: 55
336-> Hits: 33, Late: 0, Early: 0, Misses: 0
337-> Hits: 257, Late: 0, Early: 0, Misses: 5
338-> Hits: 37133, Late: 35, Early: 0, Misses: 1057
339-> Hits: 1938, Late: 0, Early: 0, Misses: 47
33a-> Hits: 1669, Late: 1, Early: 0, Misses: 16
33b-> Hits: 9756, Late: 0, Early: 0, Misses: 0
33c-> Hits: 21065, Late: 2, Early: 0, Misses: 1
33d-> Hits: 507, Late: 0, Early: 0, Misses: 0
33e-> Hits: 1594, Late: 6, Early: 0, Misses: 0
33f-> Hits: 2, Late: 1, Early: 0, Misses: 0
340-> Hits: 9000, Late: 2, Early: 0, Misses: 0
341-> Hits: 384, Late: 0, Early: 0, Misses: 0
342-> Hits: 1302, Late: 0, Early: 0, Misses: 1
343-> Hits: 904, Late: 0, Early: 0, Misses: 0
344-> Hits: 120591, Late: 0, Early: 0, Misses: 29
345-> Hits: 9397, Late: 0, Early: 0, Misses: 0
346-> Hits: 133, Late: 0, Early: 0, Misses: 1
348-> Hits: 9020, Late: 1, Early: 0, Misses: 2
349-> Hits: 9511, Late: 0, Early: 0, Misses: 0
34a-> Hits: 4310, Late: 0, Early: 0, Misses: 1
34b-> Hits: 2427, Late: 0, Early: 0, Misses: 1
34c-> Hits: 67, Late: 5, Early: 0, Misses: 0
34d-> Hits: 1831, Late: 0, Early: 0, Misses: 0
34e-> Hits: 123, Late: 1, Early: 0, Misses: 0
34f-> Hits: 18525, Late: 348, Early: 0, Misses: 0
350-> Hits: 47546, Late: 2676, Early: 0, Misses: 1
351-> Hits: 2959, Late: 2, Early: 0, Misses: 0
352-> Hits: 363, Late: 0, Early: 0, Misses: 2
353-> Hits: 4, Late: 1, Early: 0, Misses: 0
354-> Hits: 27424, Late: 174, Early: 0, Misses: 0
355-> Hits: 8420, Late: 1312, Early: 0, Misses: 0
356-> Hits: 97, Late: 2, Early: 0, Misses: 52
357-> Hits: 9320, Late: 6, Early: 0, Misses: 70
358-> Hits: 3674, Late: 92, Early: 0, Misses: 0
359-> Hits: 36296, Late: 184, Early: 0, Misses: 0
35a-> Hits: 6, Late: 0, Early: 0, Misses: 0
35b-> Hits: 5, Late: 59, Early: 0, Misses: 0
35c-> Hits: 411, Late: 0, Early: 0, Misses: 0
35d-> Hits: 176, Late: 0, Early: 0, Misses: 0
35e-> Hits: 5613, Late: 0, Early: 0, Misses: 0
35f-> Hits: 16, Late: 45, Early: 0, Misses: 1
360-> Hits: 36652, Late: 1988, Early: 0, Misses: 14
361-> Hits: 682, Late: 2, Early: 0, Misses: 0
362-> Hits: 146, Late: 0, Early: 0, Misses: 1
363-> Hits: 96, Late: 0, Early: 0, Misses: 0
364-> Hits: 31377, Late: 9, Early: 0, Misses: 127
365-> Hits: 18984, Late: 2488, Early: 0, Misses: 2
366-> Hits: 9765, Late: 0, Early: 0, Misses: 0
367-> Hits: 2, Late: 0, Early: 0, Misses: 0
368-> Hits: 49665, Late: 1775, Early: 0, Misses: 129
369-> Hits: 9635, Late: 59, Early: 0, Misses: 0
36a-> Hits: 7, Late: 2, Early: 0, Misses: 0
36b-> Hits: 27851, Late: 358, Early: 0, Misses: 599
36c-> Hits: 75, Late: 0, Early: 0, Misses: 1
36d-> Hits: 365, Late: 52, Early: 0, Misses: 4
36e-> Hits: 25526, Late: 227, Early: 0, Misses: 1173
36f-> Hits: 362, Late: 0, Early: 0, Misses: 1
370-> Hits: 7872, Late: 1913, Early: 0, Misses: 0
371-> Hits: 14712, Late: 12, Early: 0, Misses: 341
372-> Hits: 14398, Late: 0, Early: 0, Misses: 0
373-> Hits: 273, Late: 2, Early: 0, Misses: 0
374-> Hits: 702, Late: 0, Early: 0, Misses: 0
375-> Hits: 8210, Late: 1626, Early: 0, Misses: 61
376-> Hits: 6, Late: 2, Early: 0, Misses: 0
377-> Hits: 9427, Late: 3, Early: 0, Misses: 330
378-> Hits: 13457, Late: 0, Early: 0, Misses: 0
379-> Hits: 2, Late: 2, Early: 0, Misses: 0
37a-> Hits: 84, Late: 0, Early: 0, Misses: 0
37c-> Hits: 350, Late: 0, Early: 0, Misses: 0
37d-> Hits: 212, Late: 60, Early: 0, Misses: 0
37e-> Hits: 15405, Late: 0, Early: 0, Misses: 0
37f-> Hits: 354, Late: 0, Early: 0, Misses: 0
380-> Hits: 40028, Late: 5851, Early: 0, Misses: 37
381-> Hits: 3, Late: 0, Early: 0, Misses: 0
382-> Hits: 1312, Late: 4, Early: 0, Misses: 175
383-> Hits: 8, Late: 0, Early: 0, Misses: 0
384-> Hits: 183, Late: 0, Early: 0, Misses: 60
385-> Hits: 27034, Late: 1521, Early: 0, Misses: 0
386-> Hits: 7717, Late: 0, Early: 0, Misses: 0
387-> Hits: 9848, Late: 0, Early: 0, Misses: 0
388-> Hits: 463, Late: 6, Early: 0, Misses: 1
389-> Hits: 11004, Late: 0, Early: 0, Misses: 0
38a-> Hits: 9474, Late: 1, Early: 0, Misses: 0
38b-> Hits: 21776, Late: 3793, Early: 0, Misses: 12
38c-> Hits: 131, Late: 76, Early: 0, Misses: 0
38d-> Hits: 494, Late: 1, Early: 0, Misses: 3
38e-> Hits: 218, Late: 0, Early: 0, Misses: 179
38f-> Hits: 187, Late: 3, Early: 0, Misses: 12
390-> Hits: 712110, Late: 9440, Early: 0, Misses: 0
391-> Hits: 9476, Late: 1628, Early: 0, Misses: 26
392-> Hits: 17546, Late: 2934, Early: 0, Misses: 0
393-> Hits: 108596, Late: 17906, Early: 0, Misses: 117
394-> Hits: 291, Late: 59, Early: 0, Misses: 0
395-> Hits: 19029, Late: 1, Early: 0, Misses: 0
396-> Hits: 572400, Late: 0, Early: 0, Misses: 6766
397-> Hits: 33276, Late: 16, Early: 0, Misses: 33
398-> Hits: 2, Late: 0, Early: 0, Misses: 0
399-> Hits: 131953, Late: 1068, Early: 0, Misses: 0
39a-> Hits: 68, Late: 0, Early: 0, Misses: 4
39b-> Hits: 2008, Late: 1, Early: 0, Misses: 3
39c-> Hits: 578982, Late: 2, Early: 0, Misses: 6844
39d-> Hits: 53, Late: 0, Early: 0, Misses: 0
39e-> Hits: 16427, Late: 7406, Early: 0, Misses: 0
39f-> Hits: 11194, Late: 59, Early: 0, Misses: 0
3a0-> Hits: 11318, Late: 136, Early: 0, Misses: 2
3a1-> Hits: 126, Late: 1, Early: 0, Misses: 1
3a2-> Hits: 569441, Late: 0, Early: 0, Misses: 6766
3a3-> Hits: 25307, Late: 4163, Early: 0, Misses: 0
3a4-> Hits: 107, Late: 0, Early: 0, Misses: 0
3a5-> Hits: 1407, Late: 2, Early: 0, Misses: 0
3a6-> Hits: 23258, Late: 27, Early: 0, Misses: 41
3a7-> Hits: 3904, Late: 0, Early: 0, Misses: 30
3a8-> Hits: 581690, Late: 1861, Early: 0, Misses: 2383
3a9-> Hits: 12027, Late: 65, Early: 0, Misses: 72
3aa-> Hits: 2, Late: 0, Early: 0, Misses: 0
3ab-> Hits: 84, Late: 0, Early: 0, Misses: 300
3ac-> Hits: 9415, Late: 0, Early: 0, Misses: 13
3ad-> Hits: 581962, Late: 221, Early: 0, Misses: 2332
3ae-> Hits: 368, Late: 0, Early: 0, Misses: 44
3af-> Hits: 87, Late: 0, Early: 0, Misses: 0
3b0-> Hits: 3025, Late: 9, Early: 0, Misses: 0
3b1-> Hits: 1983, Late: 58, Early: 0, Misses: 2
3b2-> Hits: 6, Late: 0, Early: 0, Misses: 0
3b3-> Hits: 561541, Late: 16038, Early: 0, Misses: 118
3b4-> Hits: 9783, Late: 210, Early: 0, Misses: 104
3b5-> Hits: 8547, Late: 2, Early: 0, Misses: 5
3b6-> Hits: 9785, Late: 0, Early: 0, Misses: 1
3b7-> Hits: 9351, Late: 0, Early: 0, Misses: 115
3b8-> Hits: 2937, Late: 0, Early: 0, Misses: 1
3b9-> Hits: 280, Late: 0, Early: 0, Misses: 38
3ba-> Hits: 4266, Late: 11, Early: 0, Misses: 30
3bb-> Hits: 1023, Late: 0, Early: 0, Misses: 0
3bc-> Hits: 243, Late: 1, Early: 0, Misses: 109
3bd-> Hits: 4, Late: 0, Early: 0, Misses: 0
3be-> Hits: 10900, Late: 207, Early: 0, Misses: 0
3bf-> Hits: 7802, Late: 63, Early: 0, Misses: 0
3c0-> Hits: 356, Late: 0, Early: 0, Misses: 1
3c1-> Hits: 518819, Late: 9, Early: 0, Misses: 1
3c2-> Hits: 1582, Late: 0, Early: 0, Misses: 0
3c3-> Hits: 11400, Late: 0, Early: 0, Misses: 6
3c4-> Hits: 1, Late: 0, Early: 0, Misses: 0
3c5-> Hits: 455, Late: 0, Early: 0, Misses: 116
3c6-> Hits: 7021, Late: 30, Early: 0, Misses: 0
3c7-> Hits: 6044, Late: 1, Early: 0, Misses: 0
3c8-> Hits: 9522, Late: 0, Early: 0, Misses: 1
3c9-> Hits: 308, Late: 0, Early: 0, Misses: 0
3ca-> Hits: 283, Late: 5, Early: 0, Misses: 72
3cc-> Hits: 949, Late: 1, Early: 0, Misses: 0
3cd-> Hits: 3953, Late: 2, Early: 0, Misses: 116
3ce-> Hits: 202, Late: 0, Early: 0, Misses: 0
3cf-> Hits: 3297, Late: 58, Early: 0, Misses: 65
3d0-> Hits: 441, Late: 3, Early: 0, Misses: 1
3d1-> Hits: 36, Late: 0, Early: 0, Misses: 0
3d2-> Hits: 234, Late: 1, Early: 0, Misses: 115
3d3-> Hits: 4372, Late: 8253, Early: 0, Misses: 1
3d4-> Hits: 1403, Late: 2, Early: 0, Misses: 0
3d5-> Hits: 563, Late: 0, Early: 0, Misses: 2
3d6-> Hits: 421, Late: 2, Early: 0, Misses: 1
3d7-> Hits: 2388, Late: 2, Early: 0, Misses: 116
3d8-> Hits: 24887, Late: 5, Early: 0, Misses: 4
3d9-> Hits: 1751, Late: 0, Early: 0, Misses: 0
3da-> Hits: 1589, Late: 1, Early: 0, Misses: 7
3db-> Hits: 2831, Late: 5, Early: 0, Misses: 45
3dc-> Hits: 1739, Late: 0, Early: 0, Misses: 0
3dd-> Hits: 187, Late: 0, Early: 0, Misses: 0
3de-> Hits: 535, Late: 0, Early: 0, Misses: 0
3e0-> Hits: 86765, Late: 64, Early: 0, Misses: 16
3e1-> Hits: 4354, Late: 0, Early: 0, Misses: 0
3e2-> Hits: 207, Late: 0, Early: 0, Misses: 0
3e3-> Hits: 79711, Late: 13701, Early: 0, Misses: 1
3e4-> Hits: 1571, Late: 8318, Early: 0, Misses: 0
3e5-> Hits: 668, Late: 0, Early: 0, Misses: 0
3e6-> Hits: 3892, Late: 0, Early: 0, Misses: 4
3e7-> Hits: 7226, Late: 3, Early: 0, Misses: 0
3e8-> Hits: 545966, Late: 8, Early: 0, Misses: 1
3e9-> Hits: 84082, Late: 5997, Early: 0, Misses: 1
3ea-> Hits: 2, Late: 0, Early: 0, Misses: 0
3eb-> Hits: 828, Late: 1, Early: 0, Misses: 6
3ec-> Hits: 21129, Late: 0, Early: 0, Misses: 0
3ed-> Hits: 300, Late: 0, Early: 0, Misses: 0
3ee-> Hits: 428, Late: 2, Early: 0, Misses: 0
3ef-> Hits: 11, Late: 0, Early: 0, Misses: 0
3f0-> Hits: 20905, Late: 374, Early: 0, Misses: 0
3f1-> Hits: 9940, Late: 0, Early: 0, Misses: 1
3f2-> Hits: 85577, Late: 0, Early: 0, Misses: 1
3f3-> Hits: 1804, Late: 1, Early: 0, Misses: 0
3f4-> Hits: 194498, Late: 881, Early: 0, Misses: 0
3f5-> Hits: 1804, Late: 57, Early: 0, Misses: 1
3f6-> Hits: 6322, Late: 0, Early: 0, Misses: 11
3f7-> Hits: 85, Late: 0, Early: 0, Misses: 1
3f8-> Hits: 11670, Late: 157, Early: 0, Misses: 110
3f9-> Hits: 13368, Late: 19, Early: 0, Misses: 355
3fa-> Hits: 69, Late: 0, Early: 0, Misses: 0
3fb-> Hits: 9, Late: 0, Early: 0, Misses: 0
3fc-> Hits: 9517, Late: 0, Early: 0, Misses: 0
3fd-> Hits: 1580, Late: 1, Early: 0, Misses: 0
3fe-> Hits: 11364, Late: 5, Early: 0, Misses: 52
3ff-> Hits: 15, Late: 0, Early: 0, Misses: 0
400-> Hits: 625881, Late: 3641, Early: 0, Misses: 4
401-> Hits: 4588, Late: 8361, Early: 0, Misses: 57
402-> Hits: 3194, Late: 0, Early: 0, Misses: 4
403-> Hits: 931, Late: 0, Early: 0, Misses: 1
404-> Hits: 19109, Late: 0, Early: 0, Misses: 18
405-> Hits: 1546, Late: 0, Early: 0, Misses: 0
406-> Hits: 1917, Late: 3, Early: 0, Misses: 246
407-> Hits: 371, Late: 0, Early: 0, Misses: 0
408-> Hits: 520012, Late: 5, Early: 0, Misses: 0
409-> Hits: 1407, Late: 0, Early: 0, Misses: 0
40a-> Hits: 36307, Late: 12, Early: 0, Misses: 0
40b-> Hits: 692, Late: 0, Early: 0, Misses: 0
40c-> Hits: 13238, Late: 0, Early: 0, Misses: 7
40d-> Hits: 17, Late: 0, Early: 0, Misses: 0
40e-> Hits: 19, Late: 0, Early: 0, Misses: 1
40f-> Hits: 13401, Late: 107, Early: 0, Misses: 230
410-> Hits: 33454, Late: 4841, Early: 0, Misses: 1
411-> Hits: 1628, Late: 0, Early: 0, Misses: 1
412-> Hits: 55, Late: 0, Early: 0, Misses: 0
413-> Hits: 6177, Late: 0, Early: 0, Misses: 0
414-> Hits: 6731, Late: 0, Early: 0, Misses: 0
416-> Hits: 4217, Late: 529, Early: 0, Misses: 50
417-> Hits: 36029, Late: 13, Early: 0, Misses: 0
418-> Hits: 9557, Late: 1, Early: 0, Misses: 0
419-> Hits: 117, Late: 0, Early: 0, Misses: 0
41a-> Hits: 3247, Late: 0, Early: 0, Misses: 1
41b-> Hits: 2882, Late: 0, Early: 0, Misses: 0
41c-> Hits: 66, Late: 0, Early: 0, Misses: 0
41d-> Hits: 0, Late: 1, Early: 0, Misses: 0
41e-> Hits: 133, Late: 0, Early: 0, Misses: 0
41f-> Hits: 10922, Late: 531, Early: 0, Misses: 23
420-> Hits: 115042, Late: 1618, Early: 0, Misses: 1605
421-> Hits: 5, Late: 0, Early: 0, Misses: 0
422-> Hits: 35302, Late: 23, Early: 0, Misses: 1
423-> Hits: 99189, Late: 9521, Early: 0, Misses: 1
424-> Hits: 468, Late: 2, Early: 0, Misses: 0
425-> Hits: 590727, Late: 7, Early: 0, Misses: 0
426-> Hits: 10675, Late: 1, Early: 0, Misses: 0
427-> Hits: 173, Late: 0, Early: 0, Misses: 0
428-> Hits: 9086, Late: 0, Early: 0, Misses: 1
429-> Hits: 109611, Late: 42, Early: 0, Misses: 224
42a-> Hits: 307, Late: 52, Early: 0, Misses: 0
42b-> Hits: 795, Late: 0, Early: 0, Misses: 0
42c-> Hits: 2085, Late: 0, Early: 0, Misses: 0
42d-> Hits: 26113, Late: 4, Early: 0, Misses: 1
42e-> Hits: 10783, Late: 1, Early: 0, Misses: 0
42f-> Hits: 9439, Late: 0, Early: 0, Misses: 0
430-> Hits: 185865, Late: 5201, Early: 0, Misses: 0
431-> Hits: 5, Late: 0, Early: 0, Misses: 0
432-> Hits: 1622, Late: 0, Early: 0, Misses: 0
433-> Hits: 107248, Late: 909, Early: 0, Misses: 560
434-> Hits: 1107, Late: 0, Early: 0, Misses: 0
435-> Hits: 3256, Late: 1, Early: 0, Misses: 0
436-> Hits: 63, Late: 0, Early: 0, Misses: 1
437-> Hits: 22, Late: 0, Early: 0, Misses: 0
438-> Hits: 1630, Late: 0, Early: 0, Misses: 0
439-> Hits: 2833, Late: 0, Early: 0, Misses: 2
43a-> Hits: 28867, Late: 5754, Early: 0, Misses: 0
43b-> Hits: 1601, Late: 1, Early: 0, Misses: 1
43c-> Hits: 1, Late: 2, Early: 0, Misses: 0
43d-> Hits: 9473, Late: 8, Early: 0, Misses: 0
43e-> Hits: 124482, Late: 3, Early: 0, Misses: 0
43f-> Hits: 10617, Late: 0, Early: 0, Misses: 0
440-> Hits: 3150, Late: 216, Early: 0, Misses: 2
441-> Hits: 47, Late: 2, Early: 0, Misses: 0
442-> Hits: 430, Late: 0, Early: 0, Misses: 0
443-> Hits: 723, Late: 0, Early: 0, Misses: 0
444-> Hits: 11386, Late: 0, Early: 0, Misses: 40
445-> Hits: 2892, Late: 5, Early: 0, Misses: 1
446-> Hits: 49, Late: 0, Early: 0, Misses: 0
447-> Hits: 11825, Late: 349, Early: 0, Misses: 1
448-> Hits: 47, Late: 1, Early: 0, Misses: 1
449-> Hits: 9685, Late: 0, Early: 0, Misses: 0
44a-> Hits: 81, Late: 0, Early: 0, Misses: 0
44b-> Hits: 57, Late: 0, Early: 0, Misses: 0
44c-> Hits: 2862, Late: 0, Early: 0, Misses: 0
44d-> Hits: 8275, Late: 5, Early: 0, Misses: 0
44e-> Hits: 2, Late: 0, Early: 0, Misses: 0
44f-> Hits: 1442, Late: 0, Early: 0, Misses: 1
450-> Hits: 3, Late: 0, Early: 0, Misses: 0
451-> Hits: 7914, Late: 0, Early: 0, Misses: 0
452-> Hits: 3126, Late: 0, Early: 0, Misses: 0
453-> Hits: 1369, Late: 15, Early: 0, Misses: 0
454-> Hits: 1476, Late: 206, Early: 0, Misses: 0
455-> Hits: 8049, Late: 0, Early: 0, Misses: 1044
456-> Hits: 4016, Late: 0, Early: 0, Misses: 0
457-> Hits: 7, Late: 0, Early: 0, Misses: 1
458-> Hits: 426, Late: 0, Early: 0, Misses: 0
459-> Hits: 1687, Late: 0, Early: 0, Misses: 0
45a-> Hits: 2915, Late: 0, Early: 0, Misses: 0
45b-> Hits: 1397, Late: 0, Early: 0, Misses: 0
45c-> Hits: 2, Late: 0, Early: 0, Misses: 0
45d-> Hits: 299, Late: 0, Early: 0, Misses: 1
45e-> Hits: 1420, Late: 238, Early: 0, Misses: 1
45f-> Hits: 19265, Late: 0, Early: 0, Misses: 102
460-> Hits: 209179, Late: 231, Early: 0, Misses: 0
461-> Hits: 1476, Late: 0, Early: 0, Misses: 0
462-> Hits: 12295, Late: 0, Early: 0, Misses: 132
463-> Hits: 12, Late: 0, Early: 0, Misses: 1
464-> Hits: 184170, Late: 1153, Early: 0, Misses: 20
465-> Hits: 4, Late: 6, Early: 0, Misses: 1
466-> Hits: 41, Late: 0, Early: 0, Misses: 0
467-> Hits: 9271, Late: 0, Early: 0, Misses: 127
468-> Hits: 1403, Late: 5, Early: 0, Misses: 349
469-> Hits: 24472, Late: 0, Early: 0, Misses: 0
46a-> Hits: 211813, Late: 12, Early: 0, Misses: 1
46b-> Hits: 1672, Late: 2, Early: 0, Misses: 0
46c-> Hits: 167753, Late: 218, Early: 0, Misses: 6
46d-> Hits: 3147, Late: 1, Early: 0, Misses: 0
46e-> Hits: 422, Late: 2, Early: 0, Misses: 0
46f-> Hits: 60, Late: 0, Early: 0, Misses: 3
470-> Hits: 35499, Late: 3242, Early: 0, Misses: 350
471-> Hits: 24871, Late: 49, Early: 0, Misses: 0
472-> Hits: 1, Late: 0, Early: 0, Misses: 0
473-> Hits: 10480, Late: 0, Early: 0, Misses: 108
474-> Hits: 8679, Late: 820, Early: 0, Misses: 0
475-> Hits: 25316, Late: 27, Early: 0, Misses: 4
476-> Hits: 202551, Late: 0, Early: 0, Misses: 0
477-> Hits: 105, Late: 0, Early: 0, Misses: 15
478-> Hits: 166487, Late: 808, Early: 0, Misses: 0
479-> Hits: 1974, Late: 45, Early: 0, Misses: 0
47a-> Hits: 58, Late: 0, Early: 0, Misses: 0
47b-> Hits: 1, Late: 0, Early: 0, Misses: 1
47c-> Hits: 34319, Late: 0, Early: 0, Misses: 28
47d-> Hits: 2635, Late: 15, Early: 0, Misses: 27
47e-> Hits: 216075, Late: 1558, Early: 0, Misses: 186
47f-> Hits: 156842, Late: 0, Early: 0, Misses: 7
480-> Hits: 93809, Late: 4331, Early: 0, Misses: 0
481-> Hits: 9, Late: 1, Early: 0, Misses: 1
482-> Hits: 84, Late: 0, Early: 0, Misses: 0
483-> Hits: 1, Late: 0, Early: 0, Misses: 0
484-> Hits: 33330, Late: 33, Early: 0, Misses: 27
485-> Hits: 2785, Late: 0, Early: 0, Misses: 0
486-> Hits: 8600, Late: 0, Early: 0, Misses: 1
487-> Hits: 241333, Late: 3161, Early: 0, Misses: 2
488-> Hits: 6, Late: 0, Early: 0, Misses: 1
489-> Hits: 1, Late: 1, Early: 0, Misses: 0
48a-> Hits: 21541, Late: 3642, Early: 0, Misses: 0
48b-> Hits: 162715, Late: 80, Early: 0, Misses: 6
48c-> Hits: 23997, Late: 935, Early: 0, Misses: 1
48d-> Hits: 87964, Late: 0, Early: 0, Misses: 0
48e-> Hits: 9430, Late: 5, Early: 0, Misses: 0
48f-> Hits: 112655, Late: 1, Early: 0, Misses: 0
490-> Hits: 34336, Late: 171, Early: 0, Misses: 481
491-> Hits: 5750, Late: 47, Early: 0, Misses: 1
492-> Hits: 112, Late: 0, Early: 0, Misses: 0
493-> Hits: 6, Late: 0, Early: 0, Misses: 0
494-> Hits: 25373, Late: 12, Early: 0, Misses: 1
495-> Hits: 19032, Late: 1052, Early: 0, Misses: 0
496-> Hits: 217832, Late: 1, Early: 0, Misses: 1
497-> Hits: 12533, Late: 0, Early: 0, Misses: 1
498-> Hits: 7342, Late: 0, Early: 0, Misses: 56
499-> Hits: 268756, Late: 3429, Early: 0, Misses: 0
49a-> Hits: 1532, Late: 3, Early: 0, Misses: 0
49b-> Hits: 132, Late: 0, Early: 0, Misses: 0
49c-> Hits: 118383, Late: 0, Early: 0, Misses: 0
49d-> Hits: 1796, Late: 3, Early: 0, Misses: 164
49e-> Hits: 18898, Late: 0, Early: 0, Misses: 43
49f-> Hits: 92417, Late: 339, Early: 0, Misses: 0
4a0-> Hits: 168740, Late: 157, Early: 0, Misses: 0
4a1-> Hits: 1, Late: 0, Early: 0, Misses: 0
4a2-> Hits: 9522, Late: 0, Early: 0, Misses: 0
4a3-> Hits: 33685, Late: 0, Early: 0, Misses: 4
4a4-> Hits: 81, Late: 2, Early: 0, Misses: 0
4a5-> Hits: 101713, Late: 341, Early: 0, Misses: 11
4a6-> Hits: 53941, Late: 1409, Early: 0, Misses: 0
4a7-> Hits: 18256, Late: 1, Early: 0, Misses: 0
4a8-> Hits: 2681, Late: 0, Early: 0, Misses: 0
4a9-> Hits: 31, Late: 0, Early: 0, Misses: 1
4aa-> Hits: 118, Late: 44, Early: 0, Misses: 15
4ab-> Hits: 114218, Late: 667, Early: 0, Misses: 0
4ac-> Hits: 81, Late: 0, Early: 0, Misses: 0
4ad-> Hits: 1537, Late: 0, Early: 0, Misses: 0
4ae-> Hits: 17059, Late: 0, Early: 0, Misses: 2
4af-> Hits: 4908, Late: 0, Early: 0, Misses: 0
4b0-> Hits: 233329, Late: 1042, Early: 0, Misses: 25262
4b1-> Hits: 210282, Late: 0, Early: 0, Misses: 0
4b2-> Hits: 340, Late: 0, Early: 0, Misses: 0
4b3-> Hits: 50, Late: 0, Early: 0, Misses: 0
4b4-> Hits: 169300, Late: 91, Early: 0, Misses: 1546
4b5-> Hits: 1381, Late: 0, Early: 0, Misses: 1
4b6-> Hits: 114, Late: 14, Early: 0, Misses: 14
4b7-> Hits: 2541, Late: 7, Early: 0, Misses: 0
4b8-> Hits: 152016, Late: 4999, Early: 0, Misses: 0
4b9-> Hits: 74334, Late: 90, Early: 0, Misses: 0
4ba-> Hits: 26188, Late: 3, Early: 0, Misses: 0
4bb-> Hits: 533, Late: 0, Early: 0, Misses: 280
4bc-> Hits: 157387, Late: 124, Early: 0, Misses: 3441
4bd-> Hits: 1, Late: 1, Early: 0, Misses: 0
4be-> Hits: 27679, Late: 71, Early: 0, Misses: 464
4bf-> Hits: 8, Late: 0, Early: 0, Misses: 1
4c0-> Hits: 343698, Late: 16132, Early: 0, Misses: 0
4c1-> Hits: 1586, Late: 0, Early: 0, Misses: 0
4c2-> Hits: 8, Late: 0, Early: 0, Misses: 0
4c3-> Hits: 21868, Late: 0, Early: 0, Misses: 0
4c4-> Hits: 12050, Late: 4, Early: 0, Misses: 4
4c5-> Hits: 1642, Late: 0, Early: 0, Misses: 0
4c6-> Hits: 171918, Late: 0, Early: 0, Misses: 0
4c7-> Hits: 66, Late: 0, Early: 0, Misses: 0
4c8-> Hits: 277194, Late: 40, Early: 0, Misses: 292
4c9-> Hits: 371, Late: 2, Early: 0, Misses: 55
4ca-> Hits: 1562, Late: 7, Early: 0, Misses: 0
4cb-> Hits: 24874, Late: 3, Early: 0, Misses: 113
4cc-> Hits: 374556, Late: 1643, Early: 0, Misses: 93
4cd-> Hits: 1622, Late: 1, Early: 0, Misses: 0
4ce-> Hits: 48177, Late: 3, Early: 0, Misses: 0
4cf-> Hits: 146528, Late: 1391, Early: 0, Misses: 91
4d0-> Hits: 1984, Late: 77, Early: 0, Misses: 61
4d1-> Hits: 454, Late: 4, Early: 0, Misses: 334
4d2-> Hits: 171, Late: 0, Early: 0, Misses: 0
4d3-> Hits: 8984, Late: 0, Early: 0, Misses: 0
4d4-> Hits: 472893, Late: 150, Early: 0, Misses: 3597
4d5-> Hits: 2, Late: 2, Early: 0, Misses: 0
4d6-> Hits: 6022, Late: 0, Early: 0, Misses: 1
4d7-> Hits: 8801, Late: 0, Early: 0, Misses: 84
4d8-> Hits: 88110, Late: 6, Early: 0, Misses: 0
4d9-> Hits: 31, Late: 7, Early: 0, Misses: 0
4da-> Hits: 146751, Late: 778, Early: 0, Misses: 0
4db-> Hits: 158958, Late: 10, Early: 0, Misses: 8
4dc-> Hits: 218780, Late: 1078, Early: 0, Misses: 0
4dd-> Hits: 15291, Late: 6, Early: 0, Misses: 14
4de-> Hits: 34720, Late: 7, Early: 0, Misses: 0
4df-> Hits: 108243, Late: 0, Early: 0, Misses: 6
4e0-> Hits: 165809, Late: 7582, Early: 0, Misses: 20
4e1-> Hits: 210796, Late: 5256, Early: 0, Misses: 0
4e2-> Hits: 139, Late: 1, Early: 0, Misses: 0
4e3-> Hits: 161024, Late: 46, Early: 0, Misses: 386
4e4-> Hits: 65, Late: 1, Early: 0, Misses: 1
4e5-> Hits: 3560, Late: 9, Early: 0, Misses: 0
4e6-> Hits: 1030, Late: 3, Early: 0, Misses: 51
4e7-> Hits: 233601, Late: 6001, Early: 0, Misses: 1
4e8-> Hits: 2, Late: 0, Early: 0, Misses: 0
4e9-> Hits: 35, Late: 0, Early: 0, Misses: 0
4ea-> Hits: 9372, Late: 17, Early: 0, Misses: 0
4eb-> Hits: 3598, Late: 0, Early: 0, Misses: 2
4ec-> Hits: 118031, Late: 2, Early: 0, Misses: 0
[...]
e77-> Hits: 1221, Late: 42, Early: 0, Misses: 4
e78-> Hits: 8, Late: 0, Early: 0, Misses: 0
e79-> Hits: 25730, Late: 0, Early: 0, Misses: 0
e7a-> Hits: 102, Late: 9, Early: 0, Misses: 0
e7b-> Hits: 31656, Late: 9618, Early: 0, Misses: 0
e7c-> Hits: 98450, Late: 152, Early: 0, Misses: 666
e7d-> Hits: 12962, Late: 0, Early: 0, Misses: 0
e7e-> Hits: 1, Late: 0, Early: 0, Misses: 0
e7f-> Hits: 171, Late: 0, Early: 0, Misses: 0
e80-> Hits: 41646, Late: 12, Early: 0, Misses: 0
e81-> Hits: 27001, Late: 1921, Early: 0, Misses: 0
e82-> Hits: 95921, Late: 931, Early: 0, Misses: 0
e83-> Hits: 3946, Late: 0, Early: 0, Misses: 2
e84-> Hits: 9, Late: 0, Early: 0, Misses: 0
e85-> Hits: 19904, Late: 341, Early: 0, Misses: 15
e86-> Hits: 22363, Late: 0, Early: 0, Misses: 0
e87-> Hits: 120, Late: 2, Early: 0, Misses: 0
e88-> Hits: 0, Late: 6, Early: 0, Misses: 0
e89-> Hits: 131, Late: 1, Early: 0, Misses: 0
e8a-> Hits: 240, Late: 1, Early: 0, Misses: 0
e8b-> Hits: 456, Late: 8, Early: 0, Misses: 0
e8c-> Hits: 45489, Late: 0, Early: 0, Misses: 15
e8d-> Hits: 9450, Late: 6, Early: 0, Misses: 0
e8e-> Hits: 26817, Late: 63, Early: 0, Misses: 629
e8f-> Hits: 24, Late: 55, Early: 0, Misses: 0
e90-> Hits: 8858, Late: 1, Early: 0, Misses: 0
e91-> Hits: 2557, Late: 34, Early: 0, Misses: 3
e92-> Hits: 41967, Late: 8043, Early: 0, Misses: 41
e93-> Hits: 137, Late: 0, Early: 0, Misses: 0
e94-> Hits: 9401, Late: 0, Early: 0, Misses: 0
e95-> Hits: 15, Late: 1, Early: 0, Misses: 0
e96-> Hits: 1067, Late: 1, Early: 0, Misses: 0
e97-> Hits: 49179, Late: 514, Early: 0, Misses: 0
e98-> Hits: 393, Late: 12, Early: 0, Misses: 3
e99-> Hits: 31422, Late: 10, Early: 0, Misses: 546
e9a-> Hits: 3245, Late: 0, Early: 0, Misses: 0
e9b-> Hits: 3759, Late: 0, Early: 0, Misses: 3
e9c-> Hits: 3224, Late: 0, Early: 0, Misses: 0
e9d-> Hits: 21, Late: 0, Early: 0, Misses: 0
e9e-> Hits: 28619, Late: 0, Early: 0, Misses: 57
e9f-> Hits: 5307, Late: 0, Early: 0, Misses: 0
ea0-> Hits: 255, Late: 25, Early: 0, Misses: 1
ea1-> Hits: 41712, Late: 0, Early: 0, Misses: 2
ea2-> Hits: 3255, Late: 0, Early: 0, Misses: 0
ea3-> Hits: 307, Late: 0, Early: 0, Misses: 5
ea4-> Hits: 1664, Late: 10, Early: 0, Misses: 0
ea5-> Hits: 1959, Late: 0, Early: 0, Misses: 0
ea6-> Hits: 3429, Late: 0, Early: 0, Misses: 0
ea7-> Hits: 617, Late: 0, Early: 0, Misses: 0
ea8-> Hits: 80009, Late: 8, Early: 0, Misses: 0
ea9-> Hits: 41201, Late: 0, Early: 0, Misses: 0
eaa-> Hits: 28626, Late: 5, Early: 0, Misses: 72
eab-> Hits: 934, Late: 1, Early: 0, Misses: 7
eac-> Hits: 3940, Late: 5, Early: 0, Misses: 0
ead-> Hits: 9, Late: 0, Early: 0, Misses: 0
eae-> Hits: 164, Late: 0, Early: 0, Misses: 1
eaf-> Hits: 29093, Late: 41, Early: 0, Misses: 0
eb0-> Hits: 12, Late: 14, Early: 0, Misses: 0
eb1-> Hits: 3497, Late: 0, Early: 0, Misses: 0
eb2-> Hits: 7, Late: 0, Early: 0, Misses: 1
eb3-> Hits: 10, Late: 10, Early: 0, Misses: 0
eb4-> Hits: 631, Late: 6, Early: 0, Misses: 0
eb6-> Hits: 1061, Late: 2, Early: 0, Misses: 0
eb7-> Hits: 188, Late: 0, Early: 0, Misses: 1
eb8-> Hits: 100836, Late: 3, Early: 0, Misses: 0
eb9-> Hits: 18, Late: 0, Early: 0, Misses: 0
eba-> Hits: 16, Late: 0, Early: 0, Misses: 0
ebb-> Hits: 327, Late: 0, Early: 0, Misses: 1
ebc-> Hits: 6493, Late: 1, Early: 0, Misses: 0
ebd-> Hits: 1828, Late: 0, Early: 0, Misses: 0
ebe-> Hits: 105, Late: 2, Early: 0, Misses: 0
ebf-> Hits: 1579, Late: 1, Early: 0, Misses: 1
ec0-> Hits: 60593, Late: 17601, Early: 0, Misses: 0
ec1-> Hits: 97, Late: 0, Early: 0, Misses: 0
ec2-> Hits: 20, Late: 0, Early: 0, Misses: 0
ec3-> Hits: 10, Late: 0, Early: 0, Misses: 0
ec4-> Hits: 143786, Late: 8253, Early: 0, Misses: 58
ec5-> Hits: 9556, Late: 0, Early: 0, Misses: 0
ec6-> Hits: 9, Late: 4, Early: 0, Misses: 1
ec7-> Hits: 3247, Late: 1, Early: 0, Misses: 0
ec8-> Hits: 30891, Late: 1061, Early: 0, Misses: 72
ec9-> Hits: 49075, Late: 23824, Early: 0, Misses: 0
eca-> Hits: 964, Late: 6, Early: 0, Misses: 2
ecb-> Hits: 199, Late: 18, Early: 0, Misses: 2
ecc-> Hits: 3940, Late: 2, Early: 0, Misses: 86
ecd-> Hits: 51742, Late: 1347, Early: 0, Misses: 0
ece-> Hits: 12580, Late: 8167, Early: 0, Misses: 1
ecf-> Hits: 102157, Late: 0, Early: 0, Misses: 0
ed0-> Hits: 1676, Late: 8, Early: 0, Misses: 1
ed1-> Hits: 6678, Late: 0, Early: 0, Misses: 1
ed2-> Hits: 5, Late: 1, Early: 0, Misses: 0
ed3-> Hits: 49514, Late: 1184, Early: 0, Misses: 0
ed4-> Hits: 562, Late: 1, Early: 0, Misses: 0
ed5-> Hits: 309, Late: 19, Early: 0, Misses: 0
ed6-> Hits: 3233, Late: 0, Early: 0, Misses: 0
ed7-> Hits: 89897, Late: 8, Early: 0, Misses: 0
ed8-> Hits: 76, Late: 12, Early: 0, Misses: 6
ed9-> Hits: 1, Late: 0, Early: 0, Misses: 0
eda-> Hits: 9, Late: 6, Early: 0, Misses: 0
edb-> Hits: 1011, Late: 0, Early: 0, Misses: 0
edc-> Hits: 106, Late: 2, Early: 0, Misses: 81
edd-> Hits: 111, Late: 0, Early: 0, Misses: 0
ede-> Hits: 6476, Late: 2, Early: 0, Misses: 1
edf-> Hits: 3333, Late: 59, Early: 0, Misses: 0
ee0-> Hits: 41354, Late: 4034, Early: 0, Misses: 108
ee1-> Hits: 3422, Late: 0, Early: 0, Misses: 0
ee2-> Hits: 3, Late: 1, Early: 0, Misses: 0
ee3-> Hits: 123, Late: 4, Early: 0, Misses: 0
ee4-> Hits: 184, Late: 0, Early: 0, Misses: 0
ee5-> Hits: 32798, Late: 3932, Early: 0, Misses: 0
ee6-> Hits: 36, Late: 0, Early: 0, Misses: 0
ee7-> Hits: 9384, Late: 0, Early: 0, Misses: 1
ee8-> Hits: 44, Late: 2, Early: 0, Misses: 106
ee9-> Hits: 45658, Late: 37, Early: 0, Misses: 0
eea-> Hits: 7931, Late: 57, Early: 0, Misses: 0
eeb-> Hits: 28627, Late: 141, Early: 0, Misses: 0
eec-> Hits: 7, Late: 0, Early: 0, Misses: 0
eed-> Hits: 130, Late: 0, Early: 0, Misses: 0
eee-> Hits: 229, Late: 0, Early: 0, Misses: 0
ef0-> Hits: 142993, Late: 526, Early: 0, Misses: 2348
ef1-> Hits: 32868, Late: 3650, Early: 0, Misses: 0
ef2-> Hits: 67, Late: 0, Early: 0, Misses: 0
ef3-> Hits: 5800, Late: 0, Early: 0, Misses: 0
ef4-> Hits: 7, Late: 0, Early: 0, Misses: 0
ef5-> Hits: 234781, Late: 379, Early: 0, Misses: 1482
ef6-> Hits: 11, Late: 36, Early: 0, Misses: 1
ef7-> Hits: 1, Late: 6, Early: 0, Misses: 0
ef8-> Hits: 40034, Late: 21, Early: 0, Misses: 0
ef9-> Hits: 9505, Late: 2, Early: 0, Misses: 0
efa-> Hits: 5864, Late: 40, Early: 0, Misses: 105
efb-> Hits: 1604, Late: 0, Early: 0, Misses: 0
efc-> Hits: 0, Late: 1, Early: 0, Misses: 1
efd-> Hits: 18803, Late: 2, Early: 0, Misses: 109
efe-> Hits: 44295, Late: 157, Early: 0, Misses: 18
eff-> Hits: 356, Late: 0, Early: 0, Misses: 0
f00-> Hits: 157919, Late: 557, Early: 0, Misses: 5
f01-> Hits: 3187, Late: 1, Early: 0, Misses: 0
f02-> Hits: 947, Late: 0, Early: 0, Misses: 28
f03-> Hits: 26987, Late: 112, Early: 0, Misses: 1
f04-> Hits: 30, Late: 1, Early: 0, Misses: 5
f05-> Hits: 147598, Late: 0, Early: 0, Misses: 0
f06-> Hits: 3095, Late: 0, Early: 0, Misses: 0
f07-> Hits: 355, Late: 4, Early: 0, Misses: 1
f08-> Hits: 99, Late: 31, Early: 0, Misses: 0
f09-> Hits: 51920, Late: 2306, Early: 0, Misses: 0
f0a-> Hits: 7, Late: 0, Early: 0, Misses: 0
f0b-> Hits: 78, Late: 0, Early: 0, Misses: 0
f0c-> Hits: 154, Late: 3, Early: 0, Misses: 0
f0d-> Hits: 3127, Late: 0, Early: 0, Misses: 0
f0e-> Hits: 57345, Late: 257, Early: 0, Misses: 0
f0f-> Hits: 18246, Late: 87, Early: 0, Misses: 0
f10-> Hits: 1825, Late: 7, Early: 0, Misses: 51
f11-> Hits: 26922, Late: 895, Early: 0, Misses: 0
f12-> Hits: 154, Late: 6, Early: 0, Misses: 0
f13-> Hits: 56623, Late: 253, Early: 0, Misses: 2
f14-> Hits: 1674, Late: 1, Early: 0, Misses: 0
f15-> Hits: 479, Late: 0, Early: 0, Misses: 0
f16-> Hits: 36, Late: 2, Early: 0, Misses: 0
f17-> Hits: 17, Late: 0, Early: 0, Misses: 0
f18-> Hits: 3114, Late: 3, Early: 0, Misses: 0
f19-> Hits: 75, Late: 48, Early: 0, Misses: 0
f1a-> Hits: 106, Late: 0, Early: 0, Misses: 0
f1b-> Hits: 11818, Late: 6, Early: 0, Misses: 0
f1c-> Hits: 32, Late: 0, Early: 0, Misses: 1
f1e-> Hits: 94, Late: 1, Early: 0, Misses: 2
f1f-> Hits: 56751, Late: 40, Early: 0, Misses: 2
f20-> Hits: 244850, Late: 520, Early: 0, Misses: 0
f21-> Hits: 8, Late: 0, Early: 0, Misses: 0
f22-> Hits: 533, Late: 4, Early: 0, Misses: 229
f23-> Hits: 9457, Late: 2, Early: 0, Misses: 2
f24-> Hits: 117045, Late: 2023, Early: 0, Misses: 0
f26-> Hits: 25734, Late: 4, Early: 0, Misses: 0
f27-> Hits: 169, Late: 0, Early: 0, Misses: 0
f28-> Hits: 244131, Late: 0, Early: 0, Misses: 1
f29-> Hits: 15950, Late: 73, Early: 0, Misses: 0
f2a-> Hits: 1338, Late: 8935, Early: 0, Misses: 0
f2b-> Hits: 521, Late: 1, Early: 0, Misses: 0
f2c-> Hits: 33, Late: 0, Early: 0, Misses: 0
f2d-> Hits: 7, Late: 0, Early: 0, Misses: 0
f2e-> Hits: 6659, Late: 6, Early: 0, Misses: 348
f2f-> Hits: 244, Late: 0, Early: 0, Misses: 4
f30-> Hits: 10195, Late: 3, Early: 0, Misses: 1
f31-> Hits: 67, Late: 0, Early: 0, Misses: 0
f32-> Hits: 475, Late: 0, Early: 0, Misses: 0
f33-> Hits: 29669, Late: 1726, Early: 0, Misses: 0
f34-> Hits: 49247, Late: 297, Early: 0, Misses: 1
f35-> Hits: 276, Late: 21, Early: 0, Misses: 0
f36-> Hits: 244382, Late: 0, Early: 0, Misses: 0
f37-> Hits: 1, Late: 3, Early: 0, Misses: 0
f38-> Hits: 1674, Late: 6, Early: 0, Misses: 0
f39-> Hits: 14819, Late: 75, Early: 0, Misses: 1
f3a-> Hits: 5028, Late: 0, Early: 0, Misses: 0
f3b-> Hits: 80, Late: 0, Early: 0, Misses: 0
f3c-> Hits: 244426, Late: 0, Early: 0, Misses: 0
f3d-> Hits: 21, Late: 4, Early: 0, Misses: 2
f3e-> Hits: 9260, Late: 0, Early: 0, Misses: 0
f3f-> Hits: 1, Late: 0, Early: 0, Misses: 0
f40-> Hits: 122289, Late: 13872, Early: 0, Misses: 0
f41-> Hits: 4, Late: 0, Early: 0, Misses: 2
f42-> Hits: 8378, Late: 636, Early: 0, Misses: 0
f43-> Hits: 110904, Late: 14468, Early: 0, Misses: 0
f44-> Hits: 1922, Late: 0, Early: 0, Misses: 103
f45-> Hits: 0, Late: 5, Early: 0, Misses: 0
f46-> Hits: 352, Late: 1320, Early: 0, Misses: 0
f47-> Hits: 27689, Late: 1126, Early: 0, Misses: 3
f48-> Hits: 2935, Late: 1159, Early: 0, Misses: 0
f49-> Hits: 46650, Late: 1898, Early: 0, Misses: 0
f4a-> Hits: 9701, Late: 0, Early: 0, Misses: 1
f4b-> Hits: 9336, Late: 0, Early: 0, Misses: 0
f4c-> Hits: 1673, Late: 171, Early: 0, Misses: 0
f4d-> Hits: 87084, Late: 1, Early: 0, Misses: 85
f4e-> Hits: 8676, Late: 5, Early: 0, Misses: 5
f4f-> Hits: 3, Late: 0, Early: 0, Misses: 2
f50-> Hits: 3534, Late: 390, Early: 0, Misses: 1
f51-> Hits: 4992, Late: 0, Early: 0, Misses: 1
f52-> Hits: 37624, Late: 15, Early: 0, Misses: 367
f53-> Hits: 3, Late: 0, Early: 0, Misses: 0
f54-> Hits: 1, Late: 0, Early: 0, Misses: 0
f55-> Hits: 301000, Late: 194, Early: 0, Misses: 0
f56-> Hits: 2174, Late: 10, Early: 0, Misses: 0
f57-> Hits: 13, Late: 0, Early: 0, Misses: 0
f58-> Hits: 1554, Late: 1, Early: 0, Misses: 0
f59-> Hits: 7848, Late: 2264, Early: 0, Misses: 61
f5a-> Hits: 35827, Late: 20, Early: 0, Misses: 477
f5b-> Hits: 3530, Late: 5, Early: 0, Misses: 0
f5c-> Hits: 200, Late: 1426, Early: 0, Misses: 0
f5d-> Hits: 0, Late: 5, Early: 0, Misses: 0
f5e-> Hits: 1514, Late: 0, Early: 0, Misses: 1
f5f-> Hits: 70, Late: 0, Early: 0, Misses: 0
f60-> Hits: 75229, Late: 30250, Early: 0, Misses: 3
f61-> Hits: 55451, Late: 38, Early: 0, Misses: 0
f62-> Hits: 7, Late: 0, Early: 0, Misses: 0
f63-> Hits: 244219, Late: 6, Early: 0, Misses: 0
f64-> Hits: 6366, Late: 0, Early: 0, Misses: 0
f65-> Hits: 842, Late: 1, Early: 0, Misses: 33
f66-> Hits: 41, Late: 21, Early: 0, Misses: 0
f67-> Hits: 363, Late: 0, Early: 0, Misses: 0
f68-> Hits: 98, Late: 0, Early: 0, Misses: 0
f69-> Hits: 248234, Late: 2069, Early: 0, Misses: 0
f6a-> Hits: 123015, Late: 320, Early: 0, Misses: 23
f6b-> Hits: 24723, Late: 234, Early: 0, Misses: 473
f6c-> Hits: 53680, Late: 67, Early: 0, Misses: 1092
f6d-> Hits: 1134, Late: 677, Early: 0, Misses: 14
f6e-> Hits: 419, Late: 0, Early: 0, Misses: 2
f6f-> Hits: 6, Late: 0, Early: 0, Misses: 0
f70-> Hits: 6105, Late: 399, Early: 0, Misses: 0
f71-> Hits: 62247, Late: 1463, Early: 0, Misses: 2
f72-> Hits: 65730, Late: 23508, Early: 0, Misses: 10
f73-> Hits: 3486, Late: 333, Early: 0, Misses: 0
f74-> Hits: 200, Late: 1369, Early: 0, Misses: 0
f75-> Hits: 144, Late: 0, Early: 0, Misses: 0
f76-> Hits: 3243, Late: 2, Early: 0, Misses: 0
f77-> Hits: 1498, Late: 196, Early: 0, Misses: 0
f78-> Hits: 56747, Late: 24, Early: 0, Misses: 0
f79-> Hits: 3473, Late: 0, Early: 0, Misses: 0
f7a-> Hits: 7, Late: 0, Early: 0, Misses: 2
f7b-> Hits: 4804, Late: 890, Early: 0, Misses: 0
f7c-> Hits: 299209, Late: 1479, Early: 0, Misses: 239
f7d-> Hits: 1758, Late: 11, Early: 0, Misses: 0
f7e-> Hits: 51032, Late: 2, Early: 0, Misses: 0
f7f-> Hits: 135, Late: 1, Early: 0, Misses: 0
f80-> Hits: 122501, Late: 968, Early: 0, Misses: 232
f81-> Hits: 55463, Late: 280, Early: 0, Misses: 0
f82-> Hits: 3420, Late: 248, Early: 0, Misses: 0
f83-> Hits: 60, Late: 0, Early: 0, Misses: 0
f84-> Hits: 81, Late: 0, Early: 0, Misses: 63
f85-> Hits: 26816, Late: 0, Early: 0, Misses: 149
f86-> Hits: 151679, Late: 320, Early: 0, Misses: 610
f87-> Hits: 3273, Late: 1, Early: 0, Misses: 0
f88-> Hits: 226, Late: 5, Early: 0, Misses: 0
f89-> Hits: 5643, Late: 2278, Early: 0, Misses: 2
f8a-> Hits: 64, Late: 2, Early: 0, Misses: 0
f8b-> Hits: 96302, Late: 0, Early: 0, Misses: 0
f8c-> Hits: 348, Late: 0, Early: 0, Misses: 6
f8d-> Hits: 403, Late: 45, Early: 0, Misses: 204
f8e-> Hits: 26800, Late: 2, Early: 0, Misses: 0
f8f-> Hits: 12, Late: 5, Early: 0, Misses: 0
f90-> Hits: 3014, Late: 315, Early: 0, Misses: 0
f91-> Hits: 3504, Late: 0, Early: 0, Misses: 0
f92-> Hits: 132, Late: 1, Early: 0, Misses: 1
f93-> Hits: 123034, Late: 0, Early: 0, Misses: 672
f94-> Hits: 3717, Late: 469, Early: 0, Misses: 18
f95-> Hits: 62734, Late: 596, Early: 0, Misses: 0
f96-> Hits: 1564, Late: 1, Early: 0, Misses: 0
f97-> Hits: 53802, Late: 22, Early: 0, Misses: 1108
f98-> Hits: 6424, Late: 341, Early: 0, Misses: 0
f99-> Hits: 176, Late: 0, Early: 0, Misses: 1
f9a-> Hits: 400654, Late: 16, Early: 0, Misses: 657
f9b-> Hits: 4155, Late: 1751, Early: 0, Misses: 0
f9c-> Hits: 52201, Late: 3230, Early: 0, Misses: 0
f9d-> Hits: 38, Late: 1, Early: 0, Misses: 1
f9e-> Hits: 4629, Late: 41, Early: 0, Misses: 0
f9f-> Hits: 10625, Late: 0, Early: 0, Misses: 0
fa0-> Hits: 112978, Late: 822, Early: 0, Misses: 658
fa1-> Hits: 7, Late: 0, Early: 0, Misses: 0
fa3-> Hits: 4, Late: 0, Early: 0, Misses: 0
fa4-> Hits: 7412, Late: 768, Early: 0, Misses: 0
fa5-> Hits: 4801, Late: 1, Early: 0, Misses: 1
fa6-> Hits: 96362, Late: 1, Early: 0, Misses: 669
fa7-> Hits: 57485, Late: 6, Early: 0, Misses: 238
fa8-> Hits: 9190, Late: 0, Early: 0, Misses: 189
fa9-> Hits: 2368, Late: 0, Early: 0, Misses: 0
faa-> Hits: 55870, Late: 49, Early: 0, Misses: 707
fab-> Hits: 1582, Late: 0, Early: 0, Misses: 0
fac-> Hits: 151785, Late: 356, Early: 0, Misses: 606
fad-> Hits: 13, Late: 0, Early: 0, Misses: 2
fae-> Hits: 157, Late: 3, Early: 0, Misses: 0
faf-> Hits: 57237, Late: 212, Early: 0, Misses: 1
fb0-> Hits: 10113, Late: 163, Early: 0, Misses: 228
fb1-> Hits: 11915, Late: 0, Early: 0, Misses: 0
fb2-> Hits: 109179, Late: 2681, Early: 0, Misses: 1
fb3-> Hits: 3032, Late: 989, Early: 0, Misses: 0
fb4-> Hits: 1970, Late: 1, Early: 0, Misses: 0
fb5-> Hits: 0, Late: 1, Early: 0, Misses: 0
fb6-> Hits: 1683, Late: 2, Early: 0, Misses: 1
fb7-> Hits: 36291, Late: 0, Early: 0, Misses: 0
fb8-> Hits: 1461, Late: 1, Early: 0, Misses: 0
fb9-> Hits: 256493, Late: 262, Early: 0, Misses: 0
fba-> Hits: 1, Late: 2, Early: 0, Misses: 0
fbb-> Hits: 187, Late: 4, Early: 0, Misses: 2
fbc-> Hits: 4, Late: 0, Early: 0, Misses: 0
fbd-> Hits: 0, Late: 2, Early: 0, Misses: 0
fbe-> Hits: 1648, Late: 1, Early: 0, Misses: 0
fbf-> Hits: 52397, Late: 841, Early: 0, Misses: 0
fc0-> Hits: 93152, Late: 15, Early: 0, Misses: 2
fc1-> Hits: 11702, Late: 0, Early: 0, Misses: 0
fc2-> Hits: 136, Late: 0, Early: 0, Misses: 1
fc3-> Hits: 1602, Late: 0, Early: 0, Misses: 0
fc4-> Hits: 0, Late: 2, Early: 0, Misses: 0
fc5-> Hits: 4, Late: 0, Early: 0, Misses: 0
fc6-> Hits: 2280, Late: 0, Early: 0, Misses: 1
fc7-> Hits: 59701, Late: 639, Early: 0, Misses: 0
fc8-> Hits: 12640, Late: 2, Early: 0, Misses: 0
fc9-> Hits: 8181, Late: 0, Early: 0, Misses: 0
fca-> Hits: 1364, Late: 1, Early: 0, Misses: 0
fcb-> Hits: 10643, Late: 3, Early: 0, Misses: 2
fcc-> Hits: 13, Late: 0, Early: 0, Misses: 1
fcd-> Hits: 3241, Late: 0, Early: 0, Misses: 0
fce-> Hits: 27, Late: 0, Early: 0, Misses: 0
fcf-> Hits: 126, Late: 0, Early: 0, Misses: 0
fd0-> Hits: 9783, Late: 786, Early: 0, Misses: 348
fd1-> Hits: 7766, Late: 0, Early: 0, Misses: 0
fd2-> Hits: 107, Late: 0, Early: 0, Misses: 1
fd3-> Hits: 56, Late: 0, Early: 0, Misses: 0
fd4-> Hits: 244769, Late: 43, Early: 0, Misses: 5
fd5-> Hits: 2, Late: 0, Early: 0, Misses: 0
fd6-> Hits: 9172, Late: 83, Early: 0, Misses: 0
fd7-> Hits: 1616, Late: 0, Early: 0, Misses: 0
fd8-> Hits: 12, Late: 2, Early: 0, Misses: 0
fd9-> Hits: 60088, Late: 2, Early: 0, Misses: 1
fda-> Hits: 3232, Late: 2, Early: 0, Misses: 5
fdb-> Hits: 3237, Late: 4, Early: 0, Misses: 0
fdc-> Hits: 243021, Late: 0, Early: 0, Misses: 1287
fdd-> Hits: 9196, Late: 0, Early: 0, Misses: 0
fde-> Hits: 34839, Late: 6, Early: 0, Misses: 0
fdf-> Hits: 10812, Late: 1, Early: 0, Misses: 0
fe0-> Hits: 27564, Late: 9276, Early: 0, Misses: 0
fe1-> Hits: 244401, Late: 2, Early: 0, Misses: 0
fe3-> Hits: 3259, Late: 0, Early: 0, Misses: 0
fe4-> Hits: 367, Late: 106, Early: 0, Misses: 0
fe5-> Hits: 118, Late: 2, Early: 0, Misses: 0
fe6-> Hits: 3034, Late: 1, Early: 0, Misses: 348
fe7-> Hits: 360, Late: 0, Early: 0, Misses: 0
fe8-> Hits: 3580, Late: 315, Early: 0, Misses: 0
fe9-> Hits: 78826, Late: 11, Early: 0, Misses: 1
fea-> Hits: 19934, Late: 47, Early: 0, Misses: 0
feb-> Hits: 374, Late: 24, Early: 0, Misses: 0
fec-> Hits: 1782, Late: 0, Early: 0, Misses: 0
fed-> Hits: 187, Late: 130, Early: 0, Misses: 0
fee-> Hits: 136, Late: 1, Early: 0, Misses: 0
fef-> Hits: 3330, Late: 6, Early: 0, Misses: 3
ff0-> Hits: 1908, Late: 6, Early: 0, Misses: 2
ff1-> Hits: 312, Late: 0, Early: 0, Misses: 1
ff2-> Hits: 5933, Late: 17, Early: 0, Misses: 9
ff3-> Hits: 15362, Late: 3604, Early: 0, Misses: 2
ff4-> Hits: 128, Late: 0, Early: 0, Misses: 0
ff5-> Hits: 40684, Late: 5, Early: 0, Misses: 0
ff6-> Hits: 2, Late: 2, Early: 0, Misses: 0
ff7-> Hits: 6, Late: 0, Early: 0, Misses: 0
ff8-> Hits: 345, Late: 0, Early: 0, Misses: 0
ff9-> Hits: 375, Late: 1, Early: 0, Misses: 0
ffa-> Hits: 414, Late: 1, Early: 0, Misses: 0
ffb-> Hits: 1723, Late: 1, Early: 0, Misses: 0
ffc-> Hits: 239, Late: 0, Early: 0, Misses: 0
ffd-> Hits: 64, Late: 7, Early: 0, Misses: 0
ffe-> Hits: 5387, Late: 0, Early: 0, Misses: 0
fff-> Hits: 7, Late: 0, Early: 0, Misses: 0
Total misses (from ip) 2683148
Total accesses (misses) 127208390 2683148
Pref: Addr 0 IP 0 Current 0

DRAM Statistics
 CHANNEL 0
 RQ ROW_BUFFER_HIT:    1661167  ROW_BUFFER_MISS:    4831453
 DBUS_CONGESTED:       4377
 WQ ROW_BUFFER_HIT:     634760  ROW_BUFFER_MISS:    1835607  FULL:      50456

 AVG_CONGESTED_CYCLE: 5
 All warmup complete: 2
Channel 0 Bank busy for read cycles: 0
Channel 0 Bank busy for write cycles: 0
Channel 0
Rank 0
0banks busy for read cycles: 192500132
0banks busy for write cycles: 235486
1banks busy for read cycles: 111279168
1banks busy for write cycles: 32851099
2banks busy for read cycles: 78087557
2banks busy for write cycles: 12627258
3banks busy for read cycles: 38339601
3banks busy for write cycles: 5591693
4banks busy for read cycles: 26126625
4banks busy for write cycles: 3296280
5banks busy for read cycles: 18828023
5banks busy for write cycles: 2409187
6banks busy for read cycles: 13940095
6banks busy for write cycles: 2341794
7banks busy for read cycles: 10188685
7banks busy for write cycles: 5249025
8banks busy for read cycles: 12438412
8banks busy for write cycles: 40160515

CPU 0 Branch Prediction Accuracy: 96.2071% MPKI: 1.94114 Average ROB Occupancy at Mispredict: 57.3317
Branch types
NOT_BRANCH: 474410438 94.8821%
BRANCH_DIRECT_JUMP: 316003 0.0632006%
BRANCH_INDIRECT: 23 4.6e-06%
BRANCH_CONDITIONAL: 24599288 4.91986%
BRANCH_DIRECT_CALL: 336971 0.0673942%
BRANCH_INDIRECT_CALL: 0 0%
BRANCH_RETURN: 336970 0.067394%
BRANCH_OTHER: 0 0%

DRAM PAGES: 1048576
Allocated PAGES: 11520
