
*** ChampSim Multicore Out-of-Order Simulator ***

Warmup Instructions: 50000000
Simulation Instructions: 500000000
Number of CPUs: 1
LLC sets: 2048
LLC ways: 16
Off-chip DRAM Size: 4096 MB Channels: 1 Width: 64-bit Data Rate: 6400 MT/s
CPU 0 runs tracer/traces/654.roms_s-1390B.champsimtrace.xz
.xz
CPU 0 Bimodal branch predictor
BTB has LRU replacement policy
ITLB has LRU replacement policy
DTLB has LRU replacement policy
STLB has LRU replacement policy
L1I has LRU replacement policy
CPU 0 L1D Berti prefetcher
L1D has LRU replacement policy
L2C has LRU replacement policy
Initialize Hawkeye state
Heartbeat CPU 0 instructions: 10000001 cycles: 3759218 heartbeat IPC: 2.66013 cumulative IPC: 2.66013 (Simulation time: 0 hr 6 min 54 sec) 
Heartbeat CPU 0 instructions: 20000000 cycles: 7253009 heartbeat IPC: 2.86222 cumulative IPC: 2.75748 (Simulation time: 0 hr 11 min 25 sec) 
Heartbeat CPU 0 instructions: 30000003 cycles: 10669732 heartbeat IPC: 2.92678 cumulative IPC: 2.81169 (Simulation time: 0 hr 15 min 38 sec) 
Heartbeat CPU 0 instructions: 40000001 cycles: 14442097 heartbeat IPC: 2.65086 cumulative IPC: 2.76968 (Simulation time: 0 hr 21 min 22 sec) 
Heartbeat CPU 0 instructions: 50000000 cycles: 18785706 heartbeat IPC: 2.30223 cumulative IPC: 2.6616 (Simulation time: 0 hr 27 min 52 sec) 

Warmup complete CPU 0 instructions: 50000002 cycles: 18785707 (Simulation time: 0 hr 27 min 52 sec) 

Heartbeat CPU 0 instructions: 60000001 cycles: 30727666 heartbeat IPC: 0.837384 cumulative IPC: 0.837383 (Simulation time: 0 hr 33 min 48 sec) 
Heartbeat CPU 0 instructions: 70000003 cycles: 42083928 heartbeat IPC: 0.880572 cumulative IPC: 0.858435 (Simulation time: 0 hr 39 min 43 sec) 
Heartbeat CPU 0 instructions: 80000002 cycles: 53438197 heartbeat IPC: 0.880726 cumulative IPC: 0.865739 (Simulation time: 0 hr 45 min 36 sec) 
Heartbeat CPU 0 instructions: 90000000 cycles: 65597653 heartbeat IPC: 0.822405 cumulative IPC: 0.854483 (Simulation time: 0 hr 53 min 45 sec) 
Heartbeat CPU 0 instructions: 100000000 cycles: 79118806 heartbeat IPC: 0.739582 cumulative IPC: 0.828732 (Simulation time: 1 hr 0 min 31 sec) 
Heartbeat CPU 0 instructions: 110000000 cycles: 92283126 heartbeat IPC: 0.759629 cumulative IPC: 0.816355 (Simulation time: 1 hr 6 min 54 sec) 
Heartbeat CPU 0 instructions: 120000002 cycles: 104444810 heartbeat IPC: 0.822255 cumulative IPC: 0.817193 (Simulation time: 1 hr 11 min 40 sec) 
Heartbeat CPU 0 instructions: 130000000 cycles: 116446182 heartbeat IPC: 0.833238 cumulative IPC: 0.819165 (Simulation time: 1 hr 17 min 14 sec) 
Heartbeat CPU 0 instructions: 140000000 cycles: 131815635 heartbeat IPC: 0.650641 cumulative IPC: 0.796249 (Simulation time: 1 hr 28 min 54 sec) 
Heartbeat CPU 0 instructions: 150000001 cycles: 144657205 heartbeat IPC: 0.778721 cumulative IPC: 0.794461 (Simulation time: 1 hr 38 min 24 sec) 
Heartbeat CPU 0 instructions: 160000002 cycles: 156947500 heartbeat IPC: 0.81365 cumulative IPC: 0.796168 (Simulation time: 1 hr 53 min 18 sec) 
Heartbeat CPU 0 instructions: 170000000 cycles: 169457464 heartbeat IPC: 0.799363 cumulative IPC: 0.796433 (Simulation time: 2 hr 7 min 30 sec) 
Heartbeat CPU 0 instructions: 180000003 cycles: 181855320 heartbeat IPC: 0.806591 cumulative IPC: 0.797206 (Simulation time: 2 hr 20 min 53 sec) 
Heartbeat CPU 0 instructions: 190000002 cycles: 193110325 heartbeat IPC: 0.888494 cumulative IPC: 0.803099 (Simulation time: 2 hr 27 min 59 sec) 
Heartbeat CPU 0 instructions: 200000001 cycles: 208568495 heartbeat IPC: 0.646907 cumulative IPC: 0.790377 (Simulation time: 2 hr 34 min 45 sec) 
Heartbeat CPU 0 instructions: 210000000 cycles: 219475587 heartbeat IPC: 0.916835 cumulative IPC: 0.79725 (Simulation time: 2 hr 45 min 55 sec) 
Heartbeat CPU 0 instructions: 220000000 cycles: 233092467 heartbeat IPC: 0.734383 cumulative IPC: 0.793255 (Simulation time: 2 hr 55 min 51 sec) 
Heartbeat CPU 0 instructions: 230000002 cycles: 248907033 heartbeat IPC: 0.632329 cumulative IPC: 0.782196 (Simulation time: 3 hr 3 min 45 sec) 
Heartbeat CPU 0 instructions: 240000002 cycles: 261668611 heartbeat IPC: 0.783602 cumulative IPC: 0.78227 (Simulation time: 3 hr 11 min 48 sec) 
Heartbeat CPU 0 instructions: 250000003 cycles: 273682852 heartbeat IPC: 0.832346 cumulative IPC: 0.78463 (Simulation time: 3 hr 20 min 41 sec) 
Heartbeat CPU 0 instructions: 260000003 cycles: 286048199 heartbeat IPC: 0.808712 cumulative IPC: 0.785744 (Simulation time: 3 hr 28 min 7 sec) 
Heartbeat CPU 0 instructions: 270000001 cycles: 297397258 heartbeat IPC: 0.88113 cumulative IPC: 0.78963 (Simulation time: 3 hr 33 min 18 sec) 
Heartbeat CPU 0 instructions: 280000002 cycles: 308750562 heartbeat IPC: 0.880801 cumulative IPC: 0.7932 (Simulation time: 3 hr 38 min 31 sec) 
Heartbeat CPU 0 instructions: 290000002 cycles: 320188884 heartbeat IPC: 0.874254 cumulative IPC: 0.796276 (Simulation time: 3 hr 44 min 38 sec) 
Heartbeat CPU 0 instructions: 300000000 cycles: 333340971 heartbeat IPC: 0.760335 cumulative IPC: 0.794773 (Simulation time: 3 hr 53 min 11 sec) 
Heartbeat CPU 0 instructions: 310000003 cycles: 345535625 heartbeat IPC: 0.820032 cumulative IPC: 0.795716 (Simulation time: 3 hr 58 min 32 sec) 
Heartbeat CPU 0 instructions: 320000000 cycles: 359124594 heartbeat IPC: 0.735891 cumulative IPC: 0.793327 (Simulation time: 4 hr 4 min 15 sec) 
Heartbeat CPU 0 instructions: 330000000 cycles: 370996160 heartbeat IPC: 0.842349 cumulative IPC: 0.794979 (Simulation time: 4 hr 8 min 57 sec) 
Heartbeat CPU 0 instructions: 340000001 cycles: 384190019 heartbeat IPC: 0.757928 cumulative IPC: 0.793641 (Simulation time: 4 hr 14 min 54 sec) 
Heartbeat CPU 0 instructions: 350000000 cycles: 398054685 heartbeat IPC: 0.721258 cumulative IPC: 0.790995 (Simulation time: 4 hr 24 min 6 sec) 
Heartbeat CPU 0 instructions: 360000001 cycles: 410157911 heartbeat IPC: 0.826226 cumulative IPC: 0.792085 (Simulation time: 4 hr 31 min 24 sec) 
Heartbeat CPU 0 instructions: 370000000 cycles: 421938299 heartbeat IPC: 0.848868 cumulative IPC: 0.793744 (Simulation time: 4 hr 40 min 3 sec) 
Heartbeat CPU 0 instructions: 380000000 cycles: 434606399 heartbeat IPC: 0.789384 cumulative IPC: 0.793611 (Simulation time: 4 hr 47 min 51 sec) 
Heartbeat CPU 0 instructions: 390000001 cycles: 446141657 heartbeat IPC: 0.866907 cumulative IPC: 0.79559 (Simulation time: 4 hr 54 min 45 sec) 
Heartbeat CPU 0 instructions: 400000000 cycles: 457332569 heartbeat IPC: 0.893582 cumulative IPC: 0.79809 (Simulation time: 4 hr 59 min 1 sec) 
Heartbeat CPU 0 instructions: 410000002 cycles: 472409386 heartbeat IPC: 0.66327 cumulative IPC: 0.793609 (Simulation time: 5 hr 5 min 13 sec) 
Heartbeat CPU 0 instructions: 420000002 cycles: 483657668 heartbeat IPC: 0.889025 cumulative IPC: 0.795918 (Simulation time: 5 hr 13 min 17 sec) 
Heartbeat CPU 0 instructions: 430000000 cycles: 496491636 heartbeat IPC: 0.779182 cumulative IPC: 0.795468 (Simulation time: 5 hr 20 min 36 sec) 
Heartbeat CPU 0 instructions: 440000000 cycles: 512384693 heartbeat IPC: 0.629206 cumulative IPC: 0.790115 (Simulation time: 5 hr 25 min 29 sec) 
Heartbeat CPU 0 instructions: 450000000 cycles: 525558810 heartbeat IPC: 0.759064 cumulative IPC: 0.789308 (Simulation time: 5 hr 31 min 21 sec) 
Heartbeat CPU 0 instructions: 460000003 cycles: 538251907 heartbeat IPC: 0.78783 cumulative IPC: 0.789272 (Simulation time: 5 hr 36 min 52 sec) 
Heartbeat CPU 0 instructions: 470000000 cycles: 550849978 heartbeat IPC: 0.793772 cumulative IPC: 0.789378 (Simulation time: 5 hr 39 min 47 sec) 
Heartbeat CPU 0 instructions: 480000002 cycles: 562211609 heartbeat IPC: 0.880156 cumulative IPC: 0.791276 (Simulation time: 5 hr 41 min 54 sec) 
Heartbeat CPU 0 instructions: 490000000 cycles: 573581897 heartbeat IPC: 0.879485 cumulative IPC: 0.793084 (Simulation time: 5 hr 44 min 0 sec) 
Heartbeat CPU 0 instructions: 500000002 cycles: 585189547 heartbeat IPC: 0.861501 cumulative IPC: 0.794486 (Simulation time: 5 hr 46 min 47 sec) 
Heartbeat CPU 0 instructions: 510000002 cycles: 598640744 heartbeat IPC: 0.743428 cumulative IPC: 0.793302 (Simulation time: 5 hr 50 min 21 sec) 
Heartbeat CPU 0 instructions: 520000001 cycles: 610865726 heartbeat IPC: 0.817997 cumulative IPC: 0.793812 (Simulation time: 5 hr 52 min 55 sec) 
Heartbeat CPU 0 instructions: 530000001 cycles: 624161116 heartbeat IPC: 0.75214 cumulative IPC: 0.792896 (Simulation time: 5 hr 55 min 20 sec) 
Heartbeat CPU 0 instructions: 540000000 cycles: 636008268 heartbeat IPC: 0.844085 cumulative IPC: 0.793879 (Simulation time: 5 hr 57 min 25 sec) 
Heartbeat CPU 0 instructions: 550000000 cycles: 649526951 heartbeat IPC: 0.739717 cumulative IPC: 0.792718 (Simulation time: 6 hr 0 min 6 sec) 
Finished CPU 0 instructions: 500000000 cycles: 630741253 cumulative IPC: 0.792718 (Simulation time: 6 hr 0 min 6 sec) 

ChampSim completed all CPUs

Region of Interest Statistics

CPU 0 cumulative IPC: 0.792718 instructions: 500000000 cycles: 630741253
ITLB TOTAL     ACCESS:   73597132  HIT:   73597125  MISS:          7  HIT %:        100  MISS %: 9.51124e-06   MPKI: 1.4e-05
ITLB LOAD TRANSLATION ACCESS:   73597132  HIT:   73597125  MISS:          7  HIT %:        100  MISS %: 9.51124e-06   MPKI: 1.4e-05
ITLB PREFETCH  REQUESTED:          0  ISSUED:          0  USEFUL:          0  USELESS:          0
ITLB USEFUL LOAD PREFETCHES:          0 PREFETCH ISSUED TO LOWER LEVEL:          0  ACCURACY: -nan
ITLB TIMELY PREFETCHES:          0 LATE PREFETCHES: 0 DROPPED PREFETCHES: 0
ITLB PREFETCHES SAME FILL-ORIGIN LEVEL: 0 DIFFERENT FILL-ORIGIN LEVEL: 0
ITLB AVERAGE MISS LATENCY: 385.857 cycles
ITLB RQ	ACCESS:   89610673	FORWARD:          0	MERGED:   16013540	TO_CACHE:   73597133

DTLB TOTAL     ACCESS:  130844025  HIT:  130420351  MISS:     423674  HIT %:    99.6762  MISS %:   0.323801   MPKI: 0.847348
DTLB LOAD TRANSLATION ACCESS:  130844025  HIT:  130420351  MISS:     423674  HIT %:    99.6762  MISS %:   0.323801   MPKI: 0.847348
DTLB PREFETCH  REQUESTED:          0  ISSUED:          0  USEFUL:          0  USELESS:          0
DTLB USEFUL LOAD PREFETCHES:          0 PREFETCH ISSUED TO LOWER LEVEL:          0  ACCURACY: -nan
DTLB TIMELY PREFETCHES:          0 LATE PREFETCHES: 0 DROPPED PREFETCHES: 0
DTLB PREFETCHES SAME FILL-ORIGIN LEVEL: 0 DIFFERENT FILL-ORIGIN LEVEL: 0
DTLB AVERAGE MISS LATENCY: 65.7737 cycles
DTLB RQ	ACCESS:  147745367	FORWARD:          0	MERGED:   16741484	TO_CACHE:  131003883

STLB TOTAL     ACCESS:   75159932  HIT:   74881486  MISS:     278446  HIT %:    99.6295  MISS %:   0.370471   MPKI: 0.556892
STLB LOAD TRANSLATION ACCESS:     423681  HIT:     281490  MISS:     142191  HIT %:    66.4391  MISS %:    33.5609   MPKI: 0.284382
STLB TRANSLATION FROM L1D PREFETCHER ACCESS:   74736251  HIT:   74599996  MISS:     136255  HIT %:    99.8177  MISS %:   0.182314   MPKI: 0.27251
STLB PREFETCH  REQUESTED:          0  ISSUED:          0  USEFUL:     135311  USELESS:        944
STLB USEFUL LOAD PREFETCHES:     135311 PREFETCH ISSUED TO LOWER LEVEL:          0  ACCURACY: inf
STLB TIMELY PREFETCHES:     135311 LATE PREFETCHES: 1439 DROPPED PREFETCHES: 150741
STLB PREFETCHES SAME FILL-ORIGIN LEVEL: 0 DIFFERENT FILL-ORIGIN LEVEL: 0
STLB AVERAGE MISS LATENCY: 134592 cycles
STLB RQ	ACCESS:   84195120	FORWARD:          0	MERGED:    8853357	TO_CACHE:   75341763

STLB Hit, L1D data hit: 0
STLB Hit, L2C data hit: 0
STLB Hit, LLC data hit: 0
STLB Hit, LLC data miss: 0
STLB STLB hints to L2: 0
L1D TOTAL     ACCESS:  186340000  HIT:  170737011  MISS:   15602989  HIT %:    91.6266  MISS %:     8.3734   MPKI: 31.206
L1D LOAD      ACCESS:  116920817  HIT:  114884160  MISS:    2036657  HIT %:    98.2581  MISS %:    1.74191   MPKI: 4.07331
L1D RFO       ACCESS:   17175788  HIT:   14356157  MISS:    2819631  HIT %:    83.5837  MISS %:    16.4163   MPKI: 5.63926
L1D PREFETCH  ACCESS:   52243395  HIT:   41496694  MISS:   10746701  HIT %:    79.4296  MISS %:    20.5704   MPKI: 21.4934
AGUS PREFETCH L1 MISS: 0
L1D PREFETCH  REQUESTED:  177258391  ISSUED:  177258391  USEFUL:    9076726  USELESS:    1669891
L1D USEFUL LOAD PREFETCHES:    9076726 PREFETCH ISSUED TO LOWER LEVEL:   11081627  ACCURACY: 81.9079
L1D TIMELY PREFETCHES:    9076726 LATE PREFETCHES: 334917 DROPPED PREFETCHES: 157795
L1D PREFETCHES SAME FILL-ORIGIN LEVEL: 11081627 DIFFERENT FILL-ORIGIN LEVEL: 0
L1D AVERAGE MISS LATENCY: 6.78717e+06 cycles
L1D RQ	ACCESS:  183134687	FORWARD:          0	MERGED:   64870216	TO_CACHE:  117877012
L1D WQ	ACCESS:   30134696	FORWARD:     536870	MERGED:     266341	TO_CACHE:   29868355
L1D PQ	ACCESS:   93486952	FORWARD:          0	MERGED:    9566102	TO_CACHE:   83771439

L1D UNIQUE REGIONS ACCESSED: 0
L1D REGIONS CONFLICTS: 0
L1D Cross Page Prefetch Requests: 0
L1D Same Page Prefetch Requests: 105262371
L1D ROI Sum of L1D PQ occupancy: 1505781203
L1D PREFETCHES PUSHED FROM L2C: 0
L1I TOTAL     ACCESS:   89609757  HIT:   89607947  MISS:       1810  HIT %:     99.998  MISS %: 0.00201987   MPKI: 0.00362
L1I LOAD      ACCESS:   89609757  HIT:   89607947  MISS:       1810  HIT %:     99.998  MISS %: 0.00201987   MPKI: 0.00362
L1I PREFETCH  REQUESTED:          0  ISSUED:          0  USEFUL:          0  USELESS:          0
L1I USEFUL LOAD PREFETCHES:          0 PREFETCH ISSUED TO LOWER LEVEL:          0  ACCURACY: -nan
L1I TIMELY PREFETCHES:          0 LATE PREFETCHES: 0 DROPPED PREFETCHES: 0
L1I PREFETCHES SAME FILL-ORIGIN LEVEL: 0 DIFFERENT FILL-ORIGIN LEVEL: 0
L1I AVERAGE MISS LATENCY: 249.146 cycles
L1I RQ	ACCESS:  126323118	FORWARD:          0	MERGED:   36712445	TO_CACHE:   89610673

BTB TOTAL     ACCESS:   17296464  HIT:   17296094  MISS:        370  HIT %:    99.9979  MISS %: 0.00213917   MPKI: 0.00074
BTB BRANCH_DIRECT_JUMP	ACCESS:       2896  HIT:       2869  MISS:         27
BTB BRANCH_INDIRECT	ACCESS:          0  HIT:          0  MISS:          0
BTB BRANCH_CONDITIONAL	ACCESS:   17293018  HIT:   17292850  MISS:        168
BTB BRANCH_DIRECT_CALL	ACCESS:        275  HIT:        214  MISS:         61
BTB BRANCH_INDIRECT_CALL	ACCESS:          0  HIT:          0  MISS:          0
BTB BRANCH_RETURN	ACCESS:        275  HIT:        161  MISS:        114
BTB BRANCH_OTHER ACCESS:          0  HIT:          0  MISS:          0

L2C TOTAL     ACCESS:   19603396  HIT:    6407668  MISS:   13195728  HIT %:    32.6865  MISS %:    67.3135   MPKI: 26.3915
L2C LOAD      ACCESS:    1703534  HIT:    1064717  MISS:     638817  HIT %:    62.5005  MISS %:    37.4995   MPKI: 1.27763
L2C DATA LOAD MPKI: 1.27401
L2C INSTRUCTION LOAD MPKI: 0.00362
L2C RFO       ACCESS:    2819631  HIT:         32  MISS:    2819599  HIT %:  0.0011349  MISS %:    99.9989   MPKI: 5.6392
L2C PREFETCH  ACCESS:   11081617  HIT:    1401459  MISS:    9680158  HIT %:    12.6467  MISS %:    87.3533   MPKI: 19.3603
AGUS PREFETCH L1 MISS: 0
L2C DATA PREFETCH MPKI: 19.3603
L2C INSTRUCTION PREFETCH MPKI: 0
L2C WRITEBACK ACCESS:    3565047  HIT:    3564722  MISS:        325  HIT %:    99.9909  MISS %: 0.00911629   MPKI: 0.00065
L2C LOAD TRANSLATION ACCESS:     142623  HIT:     112229  MISS:      30394  HIT %:    78.6893  MISS %:    21.3107   MPKI: 0.060788
L2C TRANSLATION FROM L1D PREFETCHER ACCESS:     290944  HIT:     264509  MISS:      26435  HIT %:    90.9141  MISS %:    9.08594   MPKI: 0.05287
L2C PREFETCH  REQUESTED:          0  ISSUED:          0  USEFUL:     739365  USELESS:    8965688
L2C USEFUL LOAD PREFETCHES:     739365 PREFETCH ISSUED TO LOWER LEVEL:    9680167  ACCURACY: 7.63794
L2C TIMELY PREFETCHES:     739365 LATE PREFETCHES: 0 DROPPED PREFETCHES: 0
L2C PREFETCHES SAME FILL-ORIGIN LEVEL: 0 DIFFERENT FILL-ORIGIN LEVEL: 0
L2C AVERAGE MISS LATENCY: 300.902 cycles
L2C RQ	ACCESS:    4956752	FORWARD:          0	MERGED:          0	TO_CACHE:    4956736
L2C WQ	ACCESS:    3565047	FORWARD:         17	MERGED:          0	TO_CACHE:    3565047
L2C PQ	ACCESS:   11081627	FORWARD:          0	MERGED:          0	TO_CACHE:   11081626

L2C Instructions Evicting Data 1806
L2C Translations Evicting Data 56517
L2C Data Evicting Data 13078456
L2C Instructions Evicting Instructions 0
L2C Translations Evicting Instructions 5
L2C Data Evicting Instructions 1805
L2C Instructions Evicting Translations 4
L2C Translations Evicting Translations 307
L2C Data Evicting Translations 56503
L2C Dense regions hint from L2: 0
PSCL5 TOTAL     ACCESS:     429843  HIT:     429843  MISS:          0  HIT %:        100  MISS %:          0   MPKI: 0
PSCL5 LOAD TRANSLATION ACCESS:     141408  HIT:     141408  MISS:          0  HIT %:        100  MISS %:          0   MPKI: 0
PSCL5 TRANSLATION FROM L1D PREFETCHER ACCESS:     288435  HIT:     288435  MISS:          0  HIT %:        100  MISS %:          0   MPKI: 0
PSCL5 PREFETCH  REQUESTED:          0  ISSUED:          0  USEFUL:          0  USELESS:          0
PSCL5 USEFUL LOAD PREFETCHES:          0 PREFETCH ISSUED TO LOWER LEVEL:          0  ACCURACY: -nan
PSCL5 TIMELY PREFETCHES:          0 LATE PREFETCHES: 0 DROPPED PREFETCHES: 0
PSCL5 PREFETCHES SAME FILL-ORIGIN LEVEL: 0 DIFFERENT FILL-ORIGIN LEVEL: 0

PSCL4 TOTAL     ACCESS:     429843  HIT:     429843  MISS:          0  HIT %:        100  MISS %:          0   MPKI: 0
PSCL4 LOAD TRANSLATION ACCESS:     141408  HIT:     141408  MISS:          0  HIT %:        100  MISS %:          0   MPKI: 0
PSCL4 TRANSLATION FROM L1D PREFETCHER ACCESS:     288435  HIT:     288435  MISS:          0  HIT %:        100  MISS %:          0   MPKI: 0
PSCL4 PREFETCH  REQUESTED:          0  ISSUED:          0  USEFUL:          0  USELESS:          0
PSCL4 USEFUL LOAD PREFETCHES:          0 PREFETCH ISSUED TO LOWER LEVEL:          0  ACCURACY: -nan
PSCL4 TIMELY PREFETCHES:          0 LATE PREFETCHES: 0 DROPPED PREFETCHES: 0
PSCL4 PREFETCHES SAME FILL-ORIGIN LEVEL: 0 DIFFERENT FILL-ORIGIN LEVEL: 0

PSCL3 TOTAL     ACCESS:     428378  HIT:     428353  MISS:         25  HIT %:    99.9942  MISS %: 0.00583597   MPKI: 5e-05
PSCL3 LOAD TRANSLATION ACCESS:     141097  HIT:     141072  MISS:         25  HIT %:    99.9823  MISS %:  0.0177183   MPKI: 5e-05
PSCL3 TRANSLATION FROM L1D PREFETCHER ACCESS:     287281  HIT:     287281  MISS:          0  HIT %:        100  MISS %:          0   MPKI: 0
PSCL3 PREFETCH  REQUESTED:          0  ISSUED:          0  USEFUL:          0  USELESS:          0
PSCL3 USEFUL LOAD PREFETCHES:          0 PREFETCH ISSUED TO LOWER LEVEL:          0  ACCURACY: -nan
PSCL3 TIMELY PREFETCHES:          0 LATE PREFETCHES: 0 DROPPED PREFETCHES: 0
PSCL3 PREFETCHES SAME FILL-ORIGIN LEVEL: 0 DIFFERENT FILL-ORIGIN LEVEL: 0

PSCL2 TOTAL     ACCESS:     427789  HIT:     426043  MISS:       1746  HIT %:    99.5919  MISS %:   0.408145   MPKI: 0.003492
PSCL2 LOAD TRANSLATION ACCESS:     141874  HIT:     140128  MISS:       1746  HIT %:    98.7693  MISS %:    1.23067   MPKI: 0.003492
PSCL2 TRANSLATION FROM L1D PREFETCHER ACCESS:     285915  HIT:     285915  MISS:          0  HIT %:        100  MISS %:          0   MPKI: 0
PSCL2 PREFETCH  REQUESTED:          0  ISSUED:          0  USEFUL:          0  USELESS:          0
PSCL2 USEFUL LOAD PREFETCHES:          0 PREFETCH ISSUED TO LOWER LEVEL:          0  ACCURACY: -nan
PSCL2 TIMELY PREFETCHES:          0 LATE PREFETCHES: 0 DROPPED PREFETCHES: 0
PSCL2 PREFETCHES SAME FILL-ORIGIN LEVEL: 0 DIFFERENT FILL-ORIGIN LEVEL: 0

LLC TOTAL     ACCESS:   16748646  HIT:     978270  MISS:   15770376  HIT %:    5.84089  MISS %:    94.1591   MPKI: 31.5408
LLC LOAD      ACCESS:     638817  HIT:      62240  MISS:     576577  HIT %:    9.74301  MISS %:     90.257   MPKI: 1.15315
LLC RFO       ACCESS:    2819599  HIT:      61232  MISS:    2758367  HIT %:    2.17166  MISS %:    97.8283   MPKI: 5.51673
LLC PREFETCH  ACCESS:    9680157  HIT:     206574  MISS:    9473583  HIT %:    2.13399  MISS %:     97.866   MPKI: 18.9472
AGUS PREFETCH L1 MISS: 0
LLC WRITEBACK ACCESS:    3553244  HIT:     642298  MISS:    2910946  HIT %:    18.0764  MISS %:    81.9236   MPKI: 5.82189
LLC LOAD TRANSLATION ACCESS:      30394  HIT:       1587  MISS:      28807  HIT %:    5.22143  MISS %:    94.7786   MPKI: 0.057614
LLC TRANSLATION FROM L1D PREFETCHER ACCESS:      26435  HIT:       4339  MISS:      22096  HIT %:    16.4138  MISS %:    83.5862   MPKI: 0.044192
LLC PREFETCH  REQUESTED:          0  ISSUED:          0  USEFUL:      48501  USELESS:    9430217
LLC USEFUL LOAD PREFETCHES:      48501 PREFETCH ISSUED TO LOWER LEVEL:    9473592  ACCURACY: 0.51196
LLC TIMELY PREFETCHES:      48501 LATE PREFETCHES: 0 DROPPED PREFETCHES: 0
LLC PREFETCHES SAME FILL-ORIGIN LEVEL: 0 DIFFERENT FILL-ORIGIN LEVEL: 0
LLC AVERAGE MISS LATENCY: 226.462 cycles
LLC RQ	ACCESS:    3515248	FORWARD:          0	MERGED:          0	TO_CACHE:    3515248
LLC WQ	ACCESS:    3553244	FORWARD:          1	MERGED:          0	TO_CACHE:    3553244
LLC PQ	ACCESS:    9680167	FORWARD:          0	MERGED:          0	TO_CACHE:    9680166

LLC Dense regions hint to LLC: 0

RAW hits: 4904530
Loads Generated: 188039228
Loads sent to L1D: 183134687
Stores Generated: 30135405
Stores sent to L1D: 30135405
Major fault: 0 Minor fault: 64034
Allocated PAGES: 64034
CPU 0 L1D berti prefetcher final stats
0-> Hits: 2, Late: 0, Early: 0, Misses: 2
1-> Hits: 3, Late: 0, Early: 0, Misses: 0
4-> Hits: 14, Late: 0, Early: 0, Misses: 0
8-> Hits: 62, Late: 0, Early: 0, Misses: 0
b-> Hits: 2, Late: 0, Early: 0, Misses: 0
d-> Hits: 2, Late: 0, Early: 0, Misses: 0
f-> Hits: 3, Late: 0, Early: 0, Misses: 0
10-> Hits: 237982, Late: 41451, Early: 0, Misses: 2
11-> Hits: 259323, Late: 2, Early: 0, Misses: 0
12-> Hits: 7, Late: 0, Early: 0, Misses: 3
16-> Hits: 362710, Late: 2, Early: 0, Misses: 0
18-> Hits: 0, Late: 0, Early: 0, Misses: 2
19-> Hits: 258725, Late: 52, Early: 0, Misses: 0
1e-> Hits: 252851, Late: 668, Early: 0, Misses: 0
23-> Hits: 2, Late: 0, Early: 0, Misses: 0
24-> Hits: 307498, Late: 11308, Early: 0, Misses: 0
26-> Hits: 5, Late: 0, Early: 0, Misses: 1
2e-> Hits: 1, Late: 0, Early: 0, Misses: 2
31-> Hits: 316475, Late: 8606, Early: 0, Misses: 0
32-> Hits: 478, Late: 0, Early: 0, Misses: 546
35-> Hits: 0, Late: 0, Early: 0, Misses: 2
36-> Hits: 3, Late: 0, Early: 0, Misses: 0
37-> Hits: 129908, Late: 3872, Early: 0, Misses: 0
3a-> Hits: 480, Late: 0, Early: 0, Misses: 545
3c-> Hits: 0, Late: 1, Early: 0, Misses: 2
3d-> Hits: 890, Late: 0, Early: 0, Misses: 132
3e-> Hits: 2, Late: 0, Early: 0, Misses: 0
3f-> Hits: 0, Late: 3, Early: 0, Misses: 0
40-> Hits: 1, Late: 0, Early: 0, Misses: 2
41-> Hits: 0, Late: 0, Early: 0, Misses: 5
42-> Hits: 3, Late: 0, Early: 0, Misses: 0
44-> Hits: 734, Late: 0, Early: 0, Misses: 0
45-> Hits: 190986, Late: 2533, Early: 0, Misses: 0
46-> Hits: 1, Late: 0, Early: 0, Misses: 0
47-> Hits: 3, Late: 0, Early: 0, Misses: 0
49-> Hits: 2, Late: 0, Early: 0, Misses: 0
4c-> Hits: 11, Late: 1, Early: 0, Misses: 2
4e-> Hits: 3, Late: 0, Early: 0, Misses: 0
4f-> Hits: 3, Late: 1, Early: 0, Misses: 1
50-> Hits: 6, Late: 0, Early: 0, Misses: 0
51-> Hits: 2, Late: 3, Early: 0, Misses: 0
54-> Hits: 891, Late: 0, Early: 0, Misses: 131
55-> Hits: 0, Late: 0, Early: 0, Misses: 3
57-> Hits: 3, Late: 0, Early: 0, Misses: 0
5b-> Hits: 96, Late: 0, Early: 0, Misses: 1
5c-> Hits: 893, Late: 0, Early: 0, Misses: 129
5d-> Hits: 3, Late: 0, Early: 0, Misses: 0
60-> Hits: 29, Late: 0, Early: 0, Misses: 0
62-> Hits: 2, Late: 0, Early: 0, Misses: 0
63-> Hits: 46, Late: 0, Early: 0, Misses: 0
64-> Hits: 1539, Late: 0, Early: 0, Misses: 0
69-> Hits: 3, Late: 0, Early: 0, Misses: 0
6a-> Hits: 1022, Late: 2, Early: 0, Misses: 0
6b-> Hits: 0, Late: 3, Early: 0, Misses: 0
6d-> Hits: 3, Late: 0, Early: 0, Misses: 0
71-> Hits: 2, Late: 1, Early: 0, Misses: 0
72-> Hits: 2560, Late: 3, Early: 0, Misses: 0
74-> Hits: 0, Late: 0, Early: 0, Misses: 3
75-> Hits: 3, Late: 0, Early: 0, Misses: 0
78-> Hits: 1018, Late: 0, Early: 0, Misses: 0
79-> Hits: 3, Late: 0, Early: 0, Misses: 0
7a-> Hits: 1538, Late: 1, Early: 0, Misses: 0
7c-> Hits: 2, Late: 2, Early: 0, Misses: 1
7d-> Hits: 61, Late: 0, Early: 0, Misses: 0
82-> Hits: 1536, Late: 0, Early: 0, Misses: 0
83-> Hits: 3, Late: 0, Early: 0, Misses: 0
84-> Hits: 1026, Late: 0, Early: 0, Misses: 0
85-> Hits: 501, Late: 0, Early: 0, Misses: 0
8a-> Hits: 1536, Late: 0, Early: 0, Misses: 0
8b-> Hits: 1, Late: 2, Early: 0, Misses: 0
8d-> Hits: 309, Late: 0, Early: 0, Misses: 0
8e-> Hits: 2, Late: 0, Early: 0, Misses: 0
90-> Hits: 6, Late: 0, Early: 0, Misses: 0
92-> Hits: 3, Late: 0, Early: 0, Misses: 0
9a-> Hits: 49, Late: 0, Early: 0, Misses: 0
9b-> Hits: 2, Late: 0, Early: 0, Misses: 0
9c-> Hits: 2, Late: 0, Early: 0, Misses: 0
a0-> Hits: 321151, Late: 30078, Early: 0, Misses: 1
a4-> Hits: 225452, Late: 35211, Early: 0, Misses: 0
a5-> Hits: 5, Late: 0, Early: 0, Misses: 0
a6-> Hits: 2, Late: 0, Early: 0, Misses: 0
a7-> Hits: 2, Late: 0, Early: 0, Misses: 0
a8-> Hits: 375377, Late: 17067, Early: 0, Misses: 0
ae-> Hits: 411197, Late: 0, Early: 0, Misses: 0
b0-> Hits: 3, Late: 3, Early: 0, Misses: 2
b5-> Hits: 5, Late: 0, Early: 0, Misses: 0
b6-> Hits: 354005, Late: 126, Early: 0, Misses: 9819
b8-> Hits: 6, Late: 0, Early: 0, Misses: 0
bc-> Hits: 385223, Late: 16557, Early: 0, Misses: 0
c0-> Hits: 3, Late: 1, Early: 0, Misses: 5
c2-> Hits: 161159, Late: 0, Early: 0, Misses: 0
c3-> Hits: 1024, Late: 0, Early: 0, Misses: 0
c5-> Hits: 1, Late: 0, Early: 0, Misses: 0
c7-> Hits: 2, Late: 0, Early: 0, Misses: 0
c9-> Hits: 3, Late: 0, Early: 0, Misses: 0
ca-> Hits: 368092, Late: 74, Early: 0, Misses: 8544
cc-> Hits: 3, Late: 0, Early: 0, Misses: 0
ce-> Hits: 1024, Late: 0, Early: 0, Misses: 3
d4-> Hits: 115273, Late: 0, Early: 0, Misses: 0
d6-> Hits: 2, Late: 0, Early: 0, Misses: 0
d8-> Hits: 12, Late: 0, Early: 0, Misses: 0
db-> Hits: 3, Late: 0, Early: 0, Misses: 0
dc-> Hits: 372756, Late: 1767, Early: 0, Misses: 0
dd-> Hits: 2, Late: 0, Early: 0, Misses: 0
de-> Hits: 2, Late: 0, Early: 0, Misses: 0
e0-> Hits: 1368, Late: 0, Early: 0, Misses: 0
e1-> Hits: 0, Late: 0, Early: 0, Misses: 2
e2-> Hits: 355647, Late: 30, Early: 0, Misses: 3386
e5-> Hits: 2, Late: 0, Early: 0, Misses: 0
e7-> Hits: 3, Late: 0, Early: 0, Misses: 0
e8-> Hits: 370152, Late: 0, Early: 0, Misses: 0
eb-> Hits: 2, Late: 1, Early: 0, Misses: 0
ec-> Hits: 4, Late: 0, Early: 0, Misses: 5
ef-> Hits: 2, Late: 1, Early: 0, Misses: 0
f3-> Hits: 13, Late: 0, Early: 0, Misses: 0
f4-> Hits: 413017, Late: 1743, Early: 0, Misses: 0
f7-> Hits: 3, Late: 0, Early: 0, Misses: 0
fa-> Hits: 373792, Late: 39, Early: 0, Misses: 6199
fb-> Hits: 6, Late: 2, Early: 0, Misses: 1
fc-> Hits: 3, Late: 0, Early: 0, Misses: 0
ff-> Hits: 3, Late: 0, Early: 0, Misses: 0
100-> Hits: 186, Late: 0, Early: 0, Misses: 0
101-> Hits: 383643, Late: 19637, Early: 0, Misses: 0
106-> Hits: 2, Late: 1, Early: 0, Misses: 0
109-> Hits: 3, Late: 0, Early: 0, Misses: 0
10b-> Hits: 409068, Late: 0, Early: 0, Misses: 0
10e-> Hits: 2, Late: 1, Early: 0, Misses: 0
111-> Hits: 3, Late: 0, Early: 0, Misses: 0
113-> Hits: 358272, Late: 4072, Early: 0, Misses: 0
114-> Hits: 6, Late: 0, Early: 0, Misses: 0
11a-> Hits: 5, Late: 1, Early: 0, Misses: 0
124-> Hits: 7, Late: 0, Early: 0, Misses: 1
125-> Hits: 2, Late: 0, Early: 0, Misses: 0
12b-> Hits: 3, Late: 0, Early: 0, Misses: 0
12f-> Hits: 5, Late: 0, Early: 0, Misses: 0
130-> Hits: 38212, Late: 28634, Early: 0, Misses: 0
131-> Hits: 0, Late: 1, Early: 0, Misses: 0
133-> Hits: 1536, Late: 0, Early: 0, Misses: 3
134-> Hits: 419950, Late: 0, Early: 0, Misses: 0
136-> Hits: 17053, Late: 16005, Early: 0, Misses: 0
13a-> Hits: 11, Late: 256, Early: 0, Misses: 0
13b-> Hits: 1479, Late: 0, Early: 0, Misses: 0
13c-> Hits: 4676, Late: 2481, Early: 0, Misses: 0
13d-> Hits: 1, Late: 0, Early: 0, Misses: 0
13f-> Hits: 3, Late: 0, Early: 0, Misses: 3
140-> Hits: 1, Late: 0, Early: 0, Misses: 0
143-> Hits: 482, Late: 33, Early: 0, Misses: 0
147-> Hits: 2, Late: 0, Early: 0, Misses: 0
14a-> Hits: 1, Late: 2, Early: 0, Misses: 0
14c-> Hits: 4, Late: 2, Early: 0, Misses: 0
150-> Hits: 98704, Late: 66, Early: 0, Misses: 0
151-> Hits: 4, Late: 2, Early: 0, Misses: 0
152-> Hits: 67203, Late: 7, Early: 0, Misses: 0
154-> Hits: 3, Late: 0, Early: 0, Misses: 0
156-> Hits: 51606, Late: 128, Early: 0, Misses: 0
157-> Hits: 695, Late: 0, Early: 0, Misses: 0
158-> Hits: 1443, Late: 0, Early: 0, Misses: 0
159-> Hits: 1, Late: 2, Early: 0, Misses: 0
15d-> Hits: 103272, Late: 158, Early: 0, Misses: 0
15f-> Hits: 894, Late: 0, Early: 0, Misses: 130
160-> Hits: 1394, Late: 0, Early: 0, Misses: 0
162-> Hits: 41213, Late: 36427, Early: 0, Misses: 0
163-> Hits: 52523, Late: 1, Early: 0, Misses: 0
165-> Hits: 758, Late: 0, Early: 0, Misses: 264
166-> Hits: 1369, Late: 0, Early: 0, Misses: 167
168-> Hits: 14460, Late: 18597, Early: 0, Misses: 1530
16a-> Hits: 92804, Late: 3, Early: 0, Misses: 0
16b-> Hits: 3, Late: 0, Early: 0, Misses: 0
16d-> Hits: 1793, Late: 0, Early: 0, Misses: 131
16e-> Hits: 1360, Late: 0, Early: 0, Misses: 176
16f-> Hits: 0, Late: 0, Early: 0, Misses: 2
170-> Hits: 4, Late: 2, Early: 0, Misses: 0
173-> Hits: 1441, Late: 0, Early: 0, Misses: 0
174-> Hits: 3, Late: 0, Early: 0, Misses: 0
175-> Hits: 745, Late: 0, Early: 0, Misses: 0
177-> Hits: 1, Late: 0, Early: 0, Misses: 0
17d-> Hits: 388, Late: 0, Early: 0, Misses: 6
17f-> Hits: 3, Late: 0, Early: 0, Misses: 0
182-> Hits: 53764, Late: 42375, Early: 0, Misses: 0
183-> Hits: 5, Late: 0, Early: 0, Misses: 0
185-> Hits: 891, Late: 0, Early: 0, Misses: 131
187-> Hits: 24817, Late: 25690, Early: 0, Misses: 0
18c-> Hits: 1444, Late: 0, Early: 0, Misses: 0
18d-> Hits: 232, Late: 0, Early: 0, Misses: 0
18f-> Hits: 4, Late: 0, Early: 0, Misses: 1
190-> Hits: 943, Late: 0, Early: 0, Misses: 0
195-> Hits: 932, Late: 0, Early: 0, Misses: 0
197-> Hits: 0, Late: 0, Early: 0, Misses: 2
198-> Hits: 39, Late: 0, Early: 0, Misses: 0
19a-> Hits: 3, Late: 0, Early: 0, Misses: 0
1a0-> Hits: 1021, Late: 0, Early: 0, Misses: 1
1a5-> Hits: 1507, Late: 0, Early: 0, Misses: 0
1a6-> Hits: 0, Late: 3, Early: 0, Misses: 0
1a7-> Hits: 4, Late: 0, Early: 0, Misses: 0
1a8-> Hits: 6, Late: 0, Early: 0, Misses: 0
1ad-> Hits: 82, Late: 0, Early: 0, Misses: 0
1ae-> Hits: 2, Late: 0, Early: 0, Misses: 0
1b0-> Hits: 894, Late: 462, Early: 0, Misses: 1139
1b4-> Hits: 503, Late: 0, Early: 0, Misses: 40
1b5-> Hits: 1014, Late: 0, Early: 0, Misses: 0
1bd-> Hits: 2898, Late: 0, Early: 0, Misses: 177
1c0-> Hits: 2, Late: 0, Early: 0, Misses: 2
1c3-> Hits: 1, Late: 0, Early: 0, Misses: 0
1c5-> Hits: 61, Late: 0, Early: 0, Misses: 0
1c6-> Hits: 195, Late: 0, Early: 0, Misses: 0
1c8-> Hits: 0, Late: 5, Early: 0, Misses: 0
1ca-> Hits: 5, Late: 0, Early: 0, Misses: 1
1cb-> Hits: 0, Late: 2, Early: 0, Misses: 0
1cd-> Hits: 1410, Late: 6, Early: 0, Misses: 120
1d1-> Hits: 49, Late: 0, Early: 0, Misses: 0
1d2-> Hits: 2, Late: 0, Early: 0, Misses: 0
1d3-> Hits: 1, Late: 0, Early: 0, Misses: 0
1d5-> Hits: 3, Late: 0, Early: 0, Misses: 0
1d8-> Hits: 3, Late: 0, Early: 0, Misses: 1
1d9-> Hits: 73, Late: 0, Early: 0, Misses: 0
1da-> Hits: 1530, Late: 0, Early: 0, Misses: 0
1dd-> Hits: 0, Late: 3, Early: 0, Misses: 2
1df-> Hits: 0, Late: 3, Early: 0, Misses: 0
1e0-> Hits: 0, Late: 1, Early: 0, Misses: 0
1e2-> Hits: 0, Late: 0, Early: 0, Misses: 2
1e3-> Hits: 1536, Late: 0, Early: 0, Misses: 0
1e5-> Hits: 1443, Late: 4, Early: 0, Misses: 93
1e9-> Hits: 0, Late: 1, Early: 0, Misses: 0
1ea-> Hits: 2, Late: 0, Early: 0, Misses: 0
1eb-> Hits: 1027, Late: 0, Early: 0, Misses: 0
1ec-> Hits: 0, Late: 0, Early: 0, Misses: 3
1ed-> Hits: 55, Late: 0, Early: 0, Misses: 0
1ee-> Hits: 292, Late: 0, Early: 0, Misses: 0
1f1-> Hits: 0, Late: 1, Early: 0, Misses: 0
1f3-> Hits: 0, Late: 3, Early: 0, Misses: 0
1f4-> Hits: 3, Late: 0, Early: 0, Misses: 0
1f5-> Hits: 38, Late: 0, Early: 0, Misses: 2
1f6-> Hits: 1027, Late: 0, Early: 0, Misses: 0
1f9-> Hits: 2877, Late: 0, Early: 0, Misses: 0
1fc-> Hits: 3, Late: 0, Early: 0, Misses: 0
1fd-> Hits: 0, Late: 1, Early: 0, Misses: 0
1fe-> Hits: 3, Late: 0, Early: 0, Misses: 0
202-> Hits: 1530, Late: 0, Early: 0, Misses: 1344
204-> Hits: 2, Late: 0, Early: 0, Misses: 0
205-> Hits: 1536, Late: 0, Early: 0, Misses: 0
206-> Hits: 3, Late: 0, Early: 0, Misses: 0
207-> Hits: 2, Late: 0, Early: 0, Misses: 0
209-> Hits: 0, Late: 1, Early: 0, Misses: 0
20a-> Hits: 1441, Late: 44, Early: 0, Misses: 0
20b-> Hits: 1354, Late: 0, Early: 0, Misses: 173
20e-> Hits: 0, Late: 3, Early: 0, Misses: 0
20f-> Hits: 0, Late: 0, Early: 0, Misses: 2
213-> Hits: 9, Late: 0, Early: 0, Misses: 186
216-> Hits: 3, Late: 0, Early: 0, Misses: 0
217-> Hits: 1456, Late: 0, Early: 0, Misses: 184
218-> Hits: 32, Late: 0, Early: 0, Misses: 0
21b-> Hits: 1, Late: 2, Early: 0, Misses: 0
21c-> Hits: 3, Late: 0, Early: 0, Misses: 0
21d-> Hits: 1, Late: 0, Early: 0, Misses: 0
21e-> Hits: 5, Late: 3, Early: 0, Misses: 0
21f-> Hits: 1536, Late: 0, Early: 0, Misses: 0
220-> Hits: 3, Late: 0, Early: 0, Misses: 0
222-> Hits: 5, Late: 0, Early: 0, Misses: 0
223-> Hits: 0, Late: 3, Early: 0, Misses: 0
224-> Hits: 1434, Late: 0, Early: 0, Misses: 0
225-> Hits: 3, Late: 0, Early: 0, Misses: 1
226-> Hits: 0, Late: 3, Early: 0, Misses: 0
22a-> Hits: 1536, Late: 0, Early: 0, Misses: 0
22d-> Hits: 3, Late: 0, Early: 0, Misses: 0
230-> Hits: 51, Late: 0, Early: 0, Misses: 390
231-> Hits: 291, Late: 0, Early: 0, Misses: 0
232-> Hits: 0, Late: 1, Early: 0, Misses: 0
237-> Hits: 1024, Late: 0, Early: 0, Misses: 0
23a-> Hits: 4, Late: 0, Early: 0, Misses: 0
23d-> Hits: 3, Late: 0, Early: 0, Misses: 0
23e-> Hits: 4, Late: 0, Early: 0, Misses: 0
23f-> Hits: 4, Late: 0, Early: 0, Misses: 0
240-> Hits: 1520, Late: 0, Early: 0, Misses: 0
241-> Hits: 1536, Late: 0, Early: 0, Misses: 0
242-> Hits: 5, Late: 0, Early: 0, Misses: 0
245-> Hits: 1538, Late: 0, Early: 0, Misses: 0
246-> Hits: 0, Late: 3, Early: 0, Misses: 0
249-> Hits: 1536, Late: 0, Early: 0, Misses: 0
24b-> Hits: 3, Late: 0, Early: 0, Misses: 0
24d-> Hits: 2905, Late: 0, Early: 0, Misses: 0
24f-> Hits: 3, Late: 1, Early: 0, Misses: 0
251-> Hits: 0, Late: 3, Early: 0, Misses: 0
252-> Hits: 1176, Late: 332, Early: 0, Misses: 0
256-> Hits: 1448, Late: 1, Early: 0, Misses: 0
25b-> Hits: 1536, Late: 0, Early: 0, Misses: 0
25c-> Hits: 337, Late: 0, Early: 0, Misses: 0
263-> Hits: 1, Late: 0, Early: 0, Misses: 0
265-> Hits: 891, Late: 129, Early: 0, Misses: 7
269-> Hits: 154, Late: 0, Early: 0, Misses: 0
26a-> Hits: 119, Late: 0, Early: 0, Misses: 0
26b-> Hits: 49, Late: 0, Early: 0, Misses: 0
26d-> Hits: 991, Late: 0, Early: 0, Misses: 0
26f-> Hits: 3, Late: 1, Early: 0, Misses: 0
271-> Hits: 54, Late: 3, Early: 0, Misses: 0
272-> Hits: 3, Late: 1, Early: 0, Misses: 0
273-> Hits: 1534, Late: 0, Early: 0, Misses: 0
275-> Hits: 3, Late: 0, Early: 0, Misses: 0
276-> Hits: 1351, Late: 0, Early: 0, Misses: 47
27b-> Hits: 9, Late: 0, Early: 0, Misses: 0
27c-> Hits: 0, Late: 0, Early: 0, Misses: 1
27d-> Hits: 1384, Late: 2, Early: 0, Misses: 1022
27e-> Hits: 3, Late: 1, Early: 0, Misses: 0
282-> Hits: 85, Late: 0, Early: 0, Misses: 0
283-> Hits: 2, Late: 0, Early: 0, Misses: 0
285-> Hits: 22, Late: 2, Early: 0, Misses: 1022
286-> Hits: 1535, Late: 1, Early: 0, Misses: 0
287-> Hits: 0, Late: 0, Early: 0, Misses: 1
288-> Hits: 0, Late: 3, Early: 0, Misses: 0
28a-> Hits: 0, Late: 0, Early: 0, Misses: 2
28b-> Hits: 177, Late: 0, Early: 0, Misses: 7
28d-> Hits: 1472, Late: 0, Early: 0, Misses: 0
28e-> Hits: 245, Late: 0, Early: 0, Misses: 46
290-> Hits: 387618, Late: 17138, Early: 0, Misses: 0
291-> Hits: 3, Late: 0, Early: 0, Misses: 0
292-> Hits: 2, Late: 0, Early: 0, Misses: 0
294-> Hits: 2, Late: 0, Early: 0, Misses: 0
295-> Hits: 149, Late: 0, Early: 0, Misses: 0
296-> Hits: 698001, Late: 7175, Early: 0, Misses: 0
29a-> Hits: 3, Late: 0, Early: 0, Misses: 0
29c-> Hits: 395387, Late: 121, Early: 0, Misses: 0
29f-> Hits: 3, Late: 0, Early: 0, Misses: 0
2a1-> Hits: 3, Late: 0, Early: 0, Misses: 0
2a2-> Hits: 33, Late: 1, Early: 0, Misses: 3
2a3-> Hits: 718623, Late: 25, Early: 0, Misses: 0
2a5-> Hits: 3, Late: 0, Early: 0, Misses: 0
2a7-> Hits: 7, Late: 3, Early: 0, Misses: 0
2a9-> Hits: 729317, Late: 9, Early: 0, Misses: 0
2aa-> Hits: 33, Late: 0, Early: 0, Misses: 2
2ad-> Hits: 0, Late: 0, Early: 0, Misses: 3
2af-> Hits: 0, Late: 4, Early: 0, Misses: 2
2b3-> Hits: 3, Late: 0, Early: 0, Misses: 0
2b9-> Hits: 721293, Late: 3, Early: 0, Misses: 0
2ba-> Hits: 3, Late: 0, Early: 0, Misses: 0
2bf-> Hits: 2, Late: 0, Early: 0, Misses: 0
2c1-> Hits: 411480, Late: 90, Early: 0, Misses: 0
2c2-> Hits: 2, Late: 0, Early: 0, Misses: 0
2c3-> Hits: 6, Late: 0, Early: 0, Misses: 0
2c7-> Hits: 1115308, Late: 34, Early: 0, Misses: 0
2cb-> Hits: 0, Late: 4, Early: 0, Misses: 0
2ce-> Hits: 400108, Late: 103, Early: 0, Misses: 0
2cf-> Hits: 2, Late: 0, Early: 0, Misses: 0
2d0-> Hits: 1014, Late: 0, Early: 0, Misses: 0
2d2-> Hits: 2, Late: 2, Early: 0, Misses: 0
2d3-> Hits: 3, Late: 0, Early: 0, Misses: 0
2d4-> Hits: 724048, Late: 40, Early: 0, Misses: 0
2d6-> Hits: 3, Late: 0, Early: 0, Misses: 0
2d7-> Hits: 0, Late: 0, Early: 0, Misses: 2
2da-> Hits: 5, Late: 2, Early: 0, Misses: 0
2de-> Hits: 3, Late: 0, Early: 0, Misses: 0
2e2-> Hits: 1, Late: 2, Early: 0, Misses: 0
2e3-> Hits: 3, Late: 1, Early: 0, Misses: 0
2e5-> Hits: 3, Late: 0, Early: 0, Misses: 0
2e9-> Hits: 2, Late: 0, Early: 0, Misses: 0
2ea-> Hits: 3, Late: 3, Early: 0, Misses: 0
2eb-> Hits: 2, Late: 2, Early: 0, Misses: 0
2ed-> Hits: 3, Late: 0, Early: 0, Misses: 0
2ee-> Hits: 3, Late: 1, Early: 0, Misses: 0
2f0-> Hits: 54, Late: 0, Early: 0, Misses: 0
2f2-> Hits: 3, Late: 4, Early: 0, Misses: 0
2f6-> Hits: 386796, Late: 2381, Early: 0, Misses: 0
2f8-> Hits: 54, Late: 0, Early: 0, Misses: 0
2fa-> Hits: 3, Late: 0, Early: 0, Misses: 0
2fb-> Hits: 90170, Late: 10185, Early: 0, Misses: 0
2fd-> Hits: 3, Late: 0, Early: 0, Misses: 2
304-> Hits: 393470, Late: 0, Early: 0, Misses: 0
309-> Hits: 388366, Late: 10, Early: 0, Misses: 470
30c-> Hits: 2, Late: 0, Early: 0, Misses: 0
30d-> Hits: 47, Late: 0, Early: 0, Misses: 0
30e-> Hits: 94051, Late: 24, Early: 0, Misses: 7088
310-> Hits: 1, Late: 0, Early: 0, Misses: 1
312-> Hits: 1536, Late: 0, Early: 0, Misses: 0
315-> Hits: 9, Late: 1, Early: 0, Misses: 0
317-> Hits: 378857, Late: 2, Early: 0, Misses: 11913
318-> Hits: 3, Late: 0, Early: 0, Misses: 0
31a-> Hits: 43, Late: 0, Early: 0, Misses: 0
31b-> Hits: 391680, Late: 1536, Early: 0, Misses: 0
31d-> Hits: 390855, Late: 12, Early: 0, Misses: 2
321-> Hits: 98527, Late: 2827, Early: 0, Misses: 0
322-> Hits: 132, Late: 0, Early: 0, Misses: 0
325-> Hits: 3, Late: 0, Early: 0, Misses: 0
326-> Hits: 5, Late: 0, Early: 0, Misses: 0
327-> Hits: 780896, Late: 0, Early: 0, Misses: 3
328-> Hits: 0, Late: 3, Early: 0, Misses: 0
329-> Hits: 1, Late: 0, Early: 0, Misses: 0
32a-> Hits: 1650, Late: 0, Early: 0, Misses: 0
32c-> Hits: 3, Late: 0, Early: 0, Misses: 0
332-> Hits: 1514, Late: 0, Early: 0, Misses: 3
334-> Hits: 3, Late: 0, Early: 0, Misses: 0
337-> Hits: 385698, Late: 0, Early: 0, Misses: 0
33a-> Hits: 37, Late: 0, Early: 0, Misses: 0
33c-> Hits: 2, Late: 0, Early: 0, Misses: 0
33d-> Hits: 30, Late: 0, Early: 0, Misses: 0
33f-> Hits: 390051, Late: 42, Early: 0, Misses: 903
340-> Hits: 2, Late: 0, Early: 0, Misses: 1
341-> Hits: 3, Late: 0, Early: 0, Misses: 0
345-> Hits: 390965, Late: 49, Early: 0, Misses: 0
348-> Hits: 4, Late: 2, Early: 0, Misses: 0
349-> Hits: 2, Late: 0, Early: 0, Misses: 0
34a-> Hits: 42, Late: 0, Early: 0, Misses: 0
34d-> Hits: 2, Late: 0, Early: 0, Misses: 4
34e-> Hits: 379207, Late: 17, Early: 0, Misses: 11693
350-> Hits: 2, Late: 0, Early: 0, Misses: 0
351-> Hits: 3, Late: 0, Early: 0, Misses: 0
352-> Hits: 1, Late: 0, Early: 0, Misses: 2
353-> Hits: 3, Late: 0, Early: 0, Misses: 0
355-> Hits: 390836, Late: 13, Early: 0, Misses: 8
359-> Hits: 3, Late: 0, Early: 0, Misses: 0
35a-> Hits: 63, Late: 0, Early: 0, Misses: 0
35d-> Hits: 0, Late: 0, Early: 0, Misses: 3
35e-> Hits: 1, Late: 0, Early: 0, Misses: 2
361-> Hits: 3, Late: 0, Early: 0, Misses: 0
363-> Hits: 2, Late: 0, Early: 0, Misses: 0
365-> Hits: 0, Late: 3, Early: 0, Misses: 0
368-> Hits: 14, Late: 3, Early: 0, Misses: 0
36a-> Hits: 163, Late: 0, Early: 0, Misses: 0
36b-> Hits: 1, Late: 0, Early: 0, Misses: 0
371-> Hits: 3, Late: 0, Early: 0, Misses: 0
373-> Hits: 0, Late: 3, Early: 0, Misses: 0
377-> Hits: 4, Late: 0, Early: 0, Misses: 0
37a-> Hits: 362, Late: 0, Early: 0, Misses: 0
37e-> Hits: 3, Late: 0, Early: 0, Misses: 0
383-> Hits: 2, Late: 0, Early: 0, Misses: 0
38a-> Hits: 3, Late: 0, Early: 0, Misses: 0
38b-> Hits: 3, Late: 0, Early: 0, Misses: 0
38c-> Hits: 1, Late: 0, Early: 0, Misses: 0
38e-> Hits: 1357, Late: 0, Early: 0, Misses: 179
390-> Hits: 4, Late: 1538, Early: 0, Misses: 3
396-> Hits: 1361, Late: 0, Early: 0, Misses: 177
398-> Hits: 0, Late: 0, Early: 0, Misses: 1
399-> Hits: 944, Late: 0, Early: 0, Misses: 0
39a-> Hits: 19, Late: 405, Early: 0, Misses: 0
39d-> Hits: 3, Late: 0, Early: 0, Misses: 0
39e-> Hits: 0, Late: 3, Early: 0, Misses: 0
3a1-> Hits: 1357, Late: 0, Early: 0, Misses: 181
3a5-> Hits: 380, Late: 0, Early: 0, Misses: 0
3a6-> Hits: 3, Late: 0, Early: 0, Misses: 0
3a9-> Hits: 1357, Late: 3, Early: 0, Misses: 179
3ac-> Hits: 1, Late: 3, Early: 0, Misses: 0
3ad-> Hits: 3, Late: 0, Early: 0, Misses: 0
3af-> Hits: 463, Late: 0, Early: 0, Misses: 7
3b1-> Hits: 18, Late: 3, Early: 0, Misses: 0
3b5-> Hits: 956, Late: 0, Early: 0, Misses: 0
3b9-> Hits: 1355, Late: 0, Early: 0, Misses: 181
3bc-> Hits: 1, Late: 0, Early: 0, Misses: 0
3be-> Hits: 3, Late: 0, Early: 0, Misses: 0
3c0-> Hits: 37423, Late: 28493, Early: 0, Misses: 0
3c1-> Hits: 2, Late: 0, Early: 0, Misses: 3
3c3-> Hits: 3, Late: 0, Early: 0, Misses: 0
3c5-> Hits: 48326, Late: 52, Early: 0, Misses: 0
3c6-> Hits: 16240, Late: 16712, Early: 0, Misses: 0
3c7-> Hits: 3, Late: 0, Early: 0, Misses: 0
3c9-> Hits: 3, Late: 0, Early: 0, Misses: 0
3ca-> Hits: 29, Late: 0, Early: 0, Misses: 0
3cc-> Hits: 160632, Late: 3074, Early: 0, Misses: 1
3d1-> Hits: 29, Late: 0, Early: 0, Misses: 0
3d2-> Hits: 33141, Late: 89, Early: 0, Misses: 3
3d5-> Hits: 2, Late: 1, Early: 0, Misses: 0
3d8-> Hits: 512772, Late: 15, Early: 0, Misses: 0
3dc-> Hits: 354881, Late: 1465, Early: 0, Misses: 0
3de-> Hits: 34392, Late: 0, Early: 0, Misses: 0
3e0-> Hits: 61610, Late: 0, Early: 0, Misses: 0
3e1-> Hits: 3, Late: 0, Early: 0, Misses: 0
3e3-> Hits: 3141, Late: 0, Early: 0, Misses: 0
3e5-> Hits: 2, Late: 0, Early: 0, Misses: 0
3e6-> Hits: 504045, Late: 24, Early: 0, Misses: 0
3eb-> Hits: 505156, Late: 22, Early: 0, Misses: 8394
3ec-> Hits: 3, Late: 0, Early: 0, Misses: 0
3f0-> Hits: 38247, Late: 33643, Early: 0, Misses: 0
3f1-> Hits: 312710, Late: 0, Early: 0, Misses: 0
3f4-> Hits: 3, Late: 0, Early: 0, Misses: 0
3f5-> Hits: 45, Late: 3, Early: 0, Misses: 0
3f6-> Hits: 13541, Late: 19378, Early: 0, Misses: 0
3f9-> Hits: 511946, Late: 70, Early: 0, Misses: 0
3fe-> Hits: 0, Late: 0, Early: 0, Misses: 3
400-> Hits: 2, Late: 0, Early: 0, Misses: 0
401-> Hits: 3, Late: 0, Early: 0, Misses: 0
402-> Hits: 333918, Late: 1137, Early: 0, Misses: 0
406-> Hits: 510295, Late: 14713, Early: 0, Misses: 0
40a-> Hits: 54130, Late: 0, Early: 0, Misses: 0
40b-> Hits: 1, Late: 0, Early: 0, Misses: 0
40d-> Hits: 61791, Late: 424, Early: 0, Misses: 0
40e-> Hits: 0, Late: 1, Early: 0, Misses: 0
411-> Hits: 2, Late: 0, Early: 0, Misses: 0
412-> Hits: 516710, Late: 8602, Early: 0, Misses: 0
417-> Hits: 39268, Late: 0, Early: 0, Misses: 0
419-> Hits: 55, Late: 0, Early: 0, Misses: 0
41b-> Hits: 0, Late: 1, Early: 0, Misses: 0
41c-> Hits: 3, Late: 0, Early: 0, Misses: 0
41f-> Hits: 495250, Late: 15916, Early: 0, Misses: 0
422-> Hits: 331902, Late: 1179, Early: 0, Misses: 0
426-> Hits: 6, Late: 0, Early: 0, Misses: 0
428-> Hits: 62966, Late: 394, Early: 0, Misses: 0
42d-> Hits: 279059, Late: 0, Early: 0, Misses: 0
42e-> Hits: 3, Late: 0, Early: 0, Misses: 0
42f-> Hits: 3, Late: 0, Early: 0, Misses: 0
430-> Hits: 4, Late: 0, Early: 0, Misses: 0
431-> Hits: 3, Late: 0, Early: 0, Misses: 0
433-> Hits: 1025, Late: 0, Early: 0, Misses: 0
435-> Hits: 492697, Late: 17444, Early: 0, Misses: 0
436-> Hits: 1, Late: 2, Early: 0, Misses: 0
437-> Hits: 3, Late: 0, Early: 0, Misses: 0
438-> Hits: 3, Late: 0, Early: 0, Misses: 0
43b-> Hits: 2, Late: 0, Early: 0, Misses: 0
43e-> Hits: 1, Late: 0, Early: 0, Misses: 0
442-> Hits: 3, Late: 2, Early: 0, Misses: 0
445-> Hits: 2, Late: 0, Early: 0, Misses: 0
447-> Hits: 370184, Late: 0, Early: 0, Misses: 0
44c-> Hits: 2, Late: 0, Early: 0, Misses: 0
44d-> Hits: 1, Late: 0, Early: 0, Misses: 0
44e-> Hits: 1, Late: 0, Early: 0, Misses: 0
44f-> Hits: 20893, Late: 0, Early: 0, Misses: 0
450-> Hits: 20, Late: 0, Early: 0, Misses: 0
456-> Hits: 0, Late: 3, Early: 0, Misses: 0
457-> Hits: 515556, Late: 9756, Early: 0, Misses: 0
458-> Hits: 3, Late: 0, Early: 0, Misses: 0
459-> Hits: 1, Late: 0, Early: 0, Misses: 3
45d-> Hits: 23398, Late: 0, Early: 0, Misses: 0
46a-> Hits: 1, Late: 0, Early: 0, Misses: 0
46b-> Hits: 5588, Late: 0, Early: 0, Misses: 0
46d-> Hits: 5, Late: 0, Early: 0, Misses: 0
472-> Hits: 2, Late: 0, Early: 0, Misses: 0
473-> Hits: 516776, Late: 8536, Early: 0, Misses: 0
479-> Hits: 1, Late: 0, Early: 0, Misses: 0
47a-> Hits: 3, Late: 0, Early: 0, Misses: 0
47b-> Hits: 1, Late: 3, Early: 0, Misses: 0
47c-> Hits: 5, Late: 0, Early: 0, Misses: 0
47d-> Hits: 30112, Late: 0, Early: 0, Misses: 0
47e-> Hits: 4, Late: 0, Early: 0, Misses: 0
480-> Hits: 4, Late: 0, Early: 0, Misses: 0
481-> Hits: 76, Late: 1, Early: 0, Misses: 0
482-> Hits: 4, Late: 0, Early: 0, Misses: 0
483-> Hits: 1022, Late: 0, Early: 0, Misses: 0
484-> Hits: 4, Late: 0, Early: 0, Misses: 0
485-> Hits: 9, Late: 0, Early: 0, Misses: 0
486-> Hits: 2, Late: 0, Early: 0, Misses: 0
489-> Hits: 1533, Late: 0, Early: 0, Misses: 3
48b-> Hits: 525307, Late: 2, Early: 0, Misses: 3
490-> Hits: 3, Late: 0, Early: 0, Misses: 0
491-> Hits: 11, Late: 0, Early: 0, Misses: 0
493-> Hits: 83303, Late: 0, Early: 0, Misses: 0
495-> Hits: 1536, Late: 0, Early: 0, Misses: 0
498-> Hits: 1374, Late: 2, Early: 0, Misses: 0
499-> Hits: 1024, Late: 0, Early: 0, Misses: 0
49b-> Hits: 516080, Late: 9232, Early: 0, Misses: 0
49d-> Hits: 1536, Late: 0, Early: 0, Misses: 0
4a0-> Hits: 1413, Late: 0, Early: 0, Misses: 0
4a1-> Hits: 43191, Late: 0, Early: 0, Misses: 0
4a3-> Hits: 1532, Late: 0, Early: 0, Misses: 0
4a4-> Hits: 1, Late: 0, Early: 0, Misses: 0
4a7-> Hits: 353630, Late: 1279, Early: 0, Misses: 0
4a9-> Hits: 525312, Late: 0, Early: 0, Misses: 0
4aa-> Hits: 80, Late: 0, Early: 0, Misses: 0
4ad-> Hits: 96655, Late: 3315, Early: 0, Misses: 0
4b0-> Hits: 1532, Late: 0, Early: 0, Misses: 0
4b5-> Hits: 1530, Late: 3, Early: 0, Misses: 0
4b8-> Hits: 1, Late: 2, Early: 0, Misses: 0
4ba-> Hits: 0, Late: 0, Early: 0, Misses: 2
4bb-> Hits: 67795, Late: 0, Early: 0, Misses: 0
4bc-> Hits: 1537, Late: 0, Early: 0, Misses: 0
4bd-> Hits: 45954, Late: 1165, Early: 0, Misses: 0
4c0-> Hits: 197, Late: 0, Early: 0, Misses: 0
4c2-> Hits: 0, Late: 0, Early: 0, Misses: 1
4c3-> Hits: 518173, Late: 10514, Early: 0, Misses: 0
4c9-> Hits: 3, Late: 0, Early: 0, Misses: 2
4cb-> Hits: 1536, Late: 0, Early: 0, Misses: 0
4cd-> Hits: 393213, Late: 3, Early: 0, Misses: 0
4cf-> Hits: 62329, Late: 2, Early: 0, Misses: 0
4d0-> Hits: 1026, Late: 0, Early: 0, Misses: 0
4d1-> Hits: 3, Late: 2, Early: 0, Misses: 0
4d4-> Hits: 1, Late: 0, Early: 0, Misses: 0
4d5-> Hits: 384829, Late: 1059, Early: 0, Misses: 0
4d8-> Hits: 152, Late: 0, Early: 0, Misses: 648
4d9-> Hits: 76, Late: 0, Early: 0, Misses: 0
4db-> Hits: 8475, Late: 156, Early: 0, Misses: 0
4e2-> Hits: 28370, Late: 0, Early: 0, Misses: 0
4e7-> Hits: 2, Late: 0, Early: 0, Misses: 0
4ea-> Hits: 1026, Late: 0, Early: 0, Misses: 0
4ec-> Hits: 3, Late: 0, Early: 0, Misses: 0
4ef-> Hits: 1, Late: 2, Early: 0, Misses: 0
4f0-> Hits: 11938, Late: 0, Early: 0, Misses: 0
4f1-> Hits: 1533, Late: 0, Early: 0, Misses: 0
4f4-> Hits: 43291, Late: 0, Early: 0, Misses: 0
4f5-> Hits: 1531, Late: 0, Early: 0, Misses: 2
4f7-> Hits: 385381, Late: 1443, Early: 0, Misses: 0
4f8-> Hits: 0, Late: 0, Early: 0, Misses: 1026
4f9-> Hits: 1437, Late: 0, Early: 0, Misses: 0
4fc-> Hits: 515598, Late: 9714, Early: 0, Misses: 0
4fd-> Hits: 7606, Late: 136, Early: 0, Misses: 0
4fe-> Hits: 1533, Late: 0, Early: 0, Misses: 0
4ff-> Hits: 3, Late: 0, Early: 0, Misses: 0
500-> Hits: 649971, Late: 71, Early: 0, Misses: 1026
502-> Hits: 0, Late: 0, Early: 0, Misses: 2
505-> Hits: 83389, Late: 0, Early: 0, Misses: 0
506-> Hits: 633483, Late: 0, Early: 0, Misses: 1028
509-> Hits: 1508, Late: 2, Early: 0, Misses: 0
50e-> Hits: 648809, Late: 264, Early: 0, Misses: 0
510-> Hits: 1, Late: 0, Early: 0, Misses: 0
512-> Hits: 1640, Late: 0, Early: 0, Misses: 0
514-> Hits: 602747, Late: 44680, Early: 0, Misses: 0
515-> Hits: 63, Late: 3, Early: 0, Misses: 0
516-> Hits: 460771, Late: 0, Early: 0, Misses: 0
51b-> Hits: 1533, Late: 0, Early: 0, Misses: 3
51e-> Hits: 3, Late: 0, Early: 0, Misses: 0
522-> Hits: 2, Late: 0, Early: 0, Misses: 0
526-> Hits: 471659, Late: 0, Early: 0, Misses: 0
52a-> Hits: 1535, Late: 0, Early: 0, Misses: 0
52e-> Hits: 479094, Late: 0, Early: 0, Misses: 0
52f-> Hits: 1536, Late: 0, Early: 0, Misses: 0
530-> Hits: 1, Late: 0, Early: 0, Misses: 0
531-> Hits: 2, Late: 0, Early: 0, Misses: 0
532-> Hits: 1536, Late: 0, Early: 0, Misses: 0
536-> Hits: 1026, Late: 0, Early: 0, Misses: 0
537-> Hits: 2, Late: 0, Early: 0, Misses: 0
539-> Hits: 109, Late: 0, Early: 0, Misses: 0
53a-> Hits: 1534, Late: 0, Early: 0, Misses: 2
53e-> Hits: 270876, Late: 0, Early: 0, Misses: 0
53f-> Hits: 9, Late: 0, Early: 0, Misses: 2
540-> Hits: 560, Late: 3, Early: 0, Misses: 0
541-> Hits: 68, Late: 0, Early: 0, Misses: 0
542-> Hits: 66, Late: 0, Early: 0, Misses: 0
543-> Hits: 1536, Late: 0, Early: 0, Misses: 0
546-> Hits: 78032, Late: 0, Early: 0, Misses: 0
548-> Hits: 6, Late: 0, Early: 0, Misses: 0
54a-> Hits: 2, Late: 0, Early: 0, Misses: 0
54f-> Hits: 1536, Late: 0, Early: 0, Misses: 0
550-> Hits: 3, Late: 0, Early: 0, Misses: 0
553-> Hits: 1010, Late: 0, Early: 0, Misses: 0
555-> Hits: 1485, Late: 0, Early: 0, Misses: 0
556-> Hits: 525311, Late: 1, Early: 0, Misses: 0
557-> Hits: 1533, Late: 0, Early: 0, Misses: 0
559-> Hits: 0, Late: 60, Early: 0, Misses: 0
55d-> Hits: 1488, Late: 0, Early: 0, Misses: 1
55e-> Hits: 440, Late: 0, Early: 0, Misses: 75
55f-> Hits: 1535, Late: 0, Early: 0, Misses: 0
565-> Hits: 8, Late: 0, Early: 0, Misses: 1530
566-> Hits: 107436, Late: 0, Early: 0, Misses: 75
56c-> Hits: 476, Late: 0, Early: 0, Misses: 6
56e-> Hits: 6, Late: 0, Early: 0, Misses: 0
56f-> Hits: 1533, Late: 0, Early: 0, Misses: 0
576-> Hits: 5, Late: 0, Early: 0, Misses: 0
579-> Hits: 3, Late: 0, Early: 0, Misses: 0
57b-> Hits: 26, Late: 0, Early: 0, Misses: 0
57e-> Hits: 116, Late: 0, Early: 0, Misses: 0
582-> Hits: 195155, Late: 0, Early: 0, Misses: 0
583-> Hits: 1026, Late: 0, Early: 0, Misses: 0
586-> Hits: 32, Late: 0, Early: 0, Misses: 0
58a-> Hits: 2, Late: 0, Early: 0, Misses: 0
58d-> Hits: 2, Late: 0, Early: 0, Misses: 0
58e-> Hits: 34, Late: 0, Early: 0, Misses: 2
591-> Hits: 30, Late: 2, Early: 0, Misses: 0
596-> Hits: 30, Late: 0, Early: 0, Misses: 0
599-> Hits: 1, Late: 2, Early: 0, Misses: 0
59b-> Hits: 502, Late: 0, Early: 0, Misses: 1
59c-> Hits: 2, Late: 0, Early: 0, Misses: 0
59e-> Hits: 1026, Late: 0, Early: 0, Misses: 0
59f-> Hits: 1485, Late: 0, Early: 0, Misses: 4
5a4-> Hits: 512, Late: 0, Early: 0, Misses: 0
5a6-> Hits: 14, Late: 0, Early: 0, Misses: 0
5a7-> Hits: 58, Late: 0, Early: 0, Misses: 2
5ae-> Hits: 1056, Late: 0, Early: 0, Misses: 0
5b2-> Hits: 0, Late: 0, Early: 0, Misses: 2
5b4-> Hits: 1, Late: 2, Early: 0, Misses: 0
5b5-> Hits: 21, Late: 0, Early: 0, Misses: 0
5b6-> Hits: 13, Late: 0, Early: 0, Misses: 0
5bd-> Hits: 17, Late: 0, Early: 0, Misses: 0
5be-> Hits: 34148, Late: 0, Early: 0, Misses: 0
5c1-> Hits: 1, Late: 0, Early: 0, Misses: 1
5c3-> Hits: 404999, Late: 60467, Early: 0, Misses: 0
5c5-> Hits: 1484, Late: 0, Early: 0, Misses: 0
5c6-> Hits: 83, Late: 0, Early: 0, Misses: 0
5c7-> Hits: 1, Late: 2, Early: 0, Misses: 0
5c8-> Hits: 463537, Late: 139, Early: 0, Misses: 0
5cd-> Hits: 1363, Late: 0, Early: 0, Misses: 162
5ce-> Hits: 450566, Late: 0, Early: 0, Misses: 0
5d0-> Hits: 613, Late: 77, Early: 0, Misses: 0
5d1-> Hits: 276062, Late: 0, Early: 0, Misses: 0
5d6-> Hits: 107958, Late: 0, Early: 0, Misses: 0
5dd-> Hits: 3, Late: 0, Early: 0, Misses: 0
5de-> Hits: 359613, Late: 138, Early: 0, Misses: 63839
5e0-> Hits: 210920, Late: 10148, Early: 0, Misses: 0
5e1-> Hits: 918, Late: 0, Early: 0, Misses: 0
5e3-> Hits: 417748, Late: 0, Early: 0, Misses: 3
5e4-> Hits: 3, Late: 0, Early: 0, Misses: 0
5e5-> Hits: 3, Late: 0, Early: 0, Misses: 0
5e6-> Hits: 183621, Late: 0, Early: 0, Misses: 0
5e9-> Hits: 2, Late: 0, Early: 0, Misses: 0
5eb-> Hits: 421826, Late: 18148, Early: 0, Misses: 0
5ec-> Hits: 3, Late: 0, Early: 0, Misses: 0
5ee-> Hits: 236006, Late: 84, Early: 0, Misses: 0
5f0-> Hits: 142407, Late: 0, Early: 0, Misses: 0
5f1-> Hits: 1019, Late: 0, Early: 0, Misses: 0
5f4-> Hits: 189814, Late: 0, Early: 0, Misses: 0
5f6-> Hits: 2, Late: 1, Early: 0, Misses: 0
5f8-> Hits: 424440, Late: 17776, Early: 0, Misses: 0
5f9-> Hits: 16, Late: 0, Early: 0, Misses: 0
5fb-> Hits: 208153, Late: 118, Early: 0, Misses: 0
5fc-> Hits: 208237, Late: 10540, Early: 0, Misses: 0
5fe-> Hits: 56925, Late: 0, Early: 0, Misses: 2
601-> Hits: 3, Late: 0, Early: 0, Misses: 1024
602-> Hits: 25419, Late: 0, Early: 0, Misses: 0
606-> Hits: 282468, Late: 9, Early: 0, Misses: 1207
609-> Hits: 1, Late: 2, Early: 0, Misses: 1024
60a-> Hits: 235104, Late: 83, Early: 0, Misses: 0
60b-> Hits: 52176, Late: 0, Early: 0, Misses: 0
610-> Hits: 243360, Late: 3366, Early: 0, Misses: 3
611-> Hits: 7785, Late: 3, Early: 0, Misses: 0
612-> Hits: 1, Late: 2, Early: 0, Misses: 0
613-> Hits: 293019, Late: 2591, Early: 0, Misses: 0
614-> Hits: 228353, Late: 28325, Early: 0, Misses: 0
618-> Hits: 411405, Late: 25, Early: 0, Misses: 2
619-> Hits: 0, Late: 2, Early: 0, Misses: 1024
61c-> Hits: 214859, Late: 613, Early: 0, Misses: 0
61e-> Hits: 3, Late: 0, Early: 0, Misses: 0
620-> Hits: 258129, Late: 1481, Early: 0, Misses: 0
621-> Hits: 6, Late: 0, Early: 0, Misses: 0
622-> Hits: 148839, Late: 0, Early: 0, Misses: 0
623-> Hits: 175048, Late: 52, Early: 0, Misses: 0
626-> Hits: 360617, Late: 2283, Early: 0, Misses: 0
629-> Hits: 2, Late: 0, Early: 0, Misses: 0
62a-> Hits: 643053, Late: 48885, Early: 0, Misses: 0
62b-> Hits: 95502, Late: 5030, Early: 0, Misses: 0
62c-> Hits: 2, Late: 0, Early: 0, Misses: 0
630-> Hits: 421068, Late: 9792, Early: 0, Misses: 0
631-> Hits: 229198, Late: 1, Early: 0, Misses: 0
633-> Hits: 1024, Late: 0, Early: 0, Misses: 0
635-> Hits: 126628, Late: 71, Early: 0, Misses: 0
636-> Hits: 331140, Late: 2, Early: 0, Misses: 2
639-> Hits: 391507, Late: 44, Early: 0, Misses: 1015
63d-> Hits: 225996, Late: 400, Early: 0, Misses: 0
63e-> Hits: 636375, Late: 13157, Early: 0, Misses: 0
641-> Hits: 0, Late: 0, Early: 0, Misses: 1024
643-> Hits: 220012, Late: 0, Early: 0, Misses: 0
644-> Hits: 166191, Late: 0, Early: 0, Misses: 0
646-> Hits: 2, Late: 0, Early: 0, Misses: 0
649-> Hits: 2648, Late: 6, Early: 0, Misses: 0
64a-> Hits: 223948, Late: 12229, Early: 0, Misses: 0
64c-> Hits: 457476, Late: 21899, Early: 0, Misses: 0
64f-> Hits: 688, Late: 0, Early: 0, Misses: 35
650-> Hits: 241604, Late: 617, Early: 0, Misses: 0
651-> Hits: 1, Late: 2, Early: 0, Misses: 0
652-> Hits: 325280, Late: 0, Early: 0, Misses: 2
654-> Hits: 390292, Late: 0, Early: 0, Misses: 3
657-> Hits: 3, Late: 0, Early: 0, Misses: 995
658-> Hits: 3, Late: 0, Early: 0, Misses: 0
65a-> Hits: 637962, Late: 12248, Early: 0, Misses: 8618
65d-> Hits: 1, Late: 0, Early: 0, Misses: 0
65f-> Hits: 912, Late: 0, Early: 0, Misses: 4
660-> Hits: 182989, Late: 0, Early: 0, Misses: 0
663-> Hits: 1, Late: 2, Early: 0, Misses: 0
664-> Hits: 390235, Late: 0, Early: 0, Misses: 0
665-> Hits: 0, Late: 3, Early: 0, Misses: 0
667-> Hits: 208, Late: 0, Early: 0, Misses: 3
668-> Hits: 463602, Late: 74, Early: 0, Misses: 51219
66c-> Hits: 391902, Late: 46, Early: 0, Misses: 0
66d-> Hits: 2, Late: 0, Early: 0, Misses: 0
66e-> Hits: 336408, Late: 0, Early: 0, Misses: 0
66f-> Hits: 1006, Late: 0, Early: 0, Misses: 1
670-> Hits: 218471, Late: 12743, Early: 0, Misses: 0
671-> Hits: 391491, Late: 31, Early: 0, Misses: 0
673-> Hits: 0, Late: 0, Early: 0, Misses: 1
675-> Hits: 8, Late: 0, Early: 0, Misses: 0
676-> Hits: 10201, Late: 0, Early: 0, Misses: 0
677-> Hits: 0, Late: 0, Early: 0, Misses: 1024
679-> Hits: 391985, Late: 27, Early: 0, Misses: 0
67b-> Hits: 1, Late: 0, Early: 0, Misses: 0
67e-> Hits: 459592, Late: 15, Early: 0, Misses: 18983
67f-> Hits: 391839, Late: 43, Early: 0, Misses: 0
680-> Hits: 1024, Late: 0, Early: 0, Misses: 0
683-> Hits: 21, Late: 0, Early: 0, Misses: 0
684-> Hits: 1021, Late: 0, Early: 0, Misses: 0
687-> Hits: 30, Late: 937, Early: 0, Misses: 60
688-> Hits: 435379, Late: 41317, Early: 0, Misses: 0
689-> Hits: 994, Late: 1, Early: 0, Misses: 0
68b-> Hits: 5, Late: 0, Early: 0, Misses: 1
68e-> Hits: 1026, Late: 0, Early: 0, Misses: 0
68f-> Hits: 912, Late: 106, Early: 0, Misses: 6
690-> Hits: 772, Late: 1, Early: 0, Misses: 0
691-> Hits: 2, Late: 0, Early: 0, Misses: 0
692-> Hits: 228909, Late: 0, Early: 0, Misses: 0
693-> Hits: 1024, Late: 2, Early: 0, Misses: 0
694-> Hits: 476046, Late: 49229, Early: 0, Misses: 0
699-> Hits: 1, Late: 2, Early: 0, Misses: 0
69a-> Hits: 195350, Late: 0, Early: 0, Misses: 0
69f-> Hits: 16, Late: 0, Early: 0, Misses: 0
6a2-> Hits: 428473, Late: 0, Early: 0, Misses: 2
6a4-> Hits: 1, Late: 2, Early: 0, Misses: 3
6a6-> Hits: 262110, Late: 0, Early: 0, Misses: 0
6a7-> Hits: 12, Late: 0, Early: 0, Misses: 0
6a8-> Hits: 50, Late: 0, Early: 0, Misses: 0
6af-> Hits: 39, Late: 0, Early: 0, Misses: 44
6b0-> Hits: 496192, Late: 28896, Early: 0, Misses: 0
6b3-> Hits: 1536, Late: 0, Early: 0, Misses: 0
6b4-> Hits: 240399, Late: 0, Early: 0, Misses: 0
6b7-> Hits: 1023, Late: 0, Early: 0, Misses: 0
6b9-> Hits: 3, Late: 0, Early: 0, Misses: 0
6bb-> Hits: 2559, Late: 0, Early: 0, Misses: 0
6bc-> Hits: 41611, Late: 0, Early: 0, Misses: 0
6bd-> Hits: 48, Late: 0, Early: 0, Misses: 0
6be-> Hits: 0, Late: 0, Early: 0, Misses: 2
6bf-> Hits: 1540, Late: 0, Early: 0, Misses: 0
6c2-> Hits: 2, Late: 0, Early: 0, Misses: 0
6c3-> Hits: 1533, Late: 0, Early: 0, Misses: 0
6c5-> Hits: 6, Late: 0, Early: 0, Misses: 0
6c7-> Hits: 3, Late: 0, Early: 0, Misses: 0
6ca-> Hits: 401405, Late: 0, Early: 0, Misses: 0
6cd-> Hits: 0, Late: 0, Early: 0, Misses: 2
6ce-> Hits: 18, Late: 0, Early: 0, Misses: 0
6cf-> Hits: 252, Late: 0, Early: 0, Misses: 0
6d1-> Hits: 500, Late: 0, Early: 0, Misses: 0
6d2-> Hits: 1528, Late: 0, Early: 0, Misses: 0
6d3-> Hits: 3, Late: 0, Early: 0, Misses: 0
6d5-> Hits: 411210, Late: 0, Early: 0, Misses: 2
6d6-> Hits: 1, Late: 0, Early: 0, Misses: 0
6d7-> Hits: 1, Late: 2, Early: 0, Misses: 0
6d9-> Hits: 0, Late: 0, Early: 0, Misses: 2
6dd-> Hits: 1536, Late: 0, Early: 0, Misses: 0
6de-> Hits: 2, Late: 0, Early: 0, Misses: 0
6df-> Hits: 13, Late: 0, Early: 0, Misses: 0
6e0-> Hits: 40143, Late: 0, Early: 0, Misses: 2
6e1-> Hits: 3, Late: 0, Early: 0, Misses: 0
6e3-> Hits: 1017, Late: 0, Early: 0, Misses: 0
6e4-> Hits: 0, Late: 0, Early: 0, Misses: 1
6e7-> Hits: 416, Late: 0, Early: 0, Misses: 67
6e8-> Hits: 3, Late: 0, Early: 0, Misses: 0
6e9-> Hits: 3, Late: 0, Early: 0, Misses: 0
6ea-> Hits: 66, Late: 0, Early: 0, Misses: 0
6ec-> Hits: 1, Late: 2, Early: 0, Misses: 2
6ed-> Hits: 2, Late: 0, Early: 0, Misses: 0
6ef-> Hits: 437500, Late: 0, Early: 0, Misses: 1
6f0-> Hits: 0, Late: 0, Early: 0, Misses: 2
6f1-> Hits: 1533, Late: 0, Early: 0, Misses: 0
6f4-> Hits: 1, Late: 2, Early: 0, Misses: 0
6f6-> Hits: 50, Late: 505, Early: 0, Misses: 7
6f7-> Hits: 524299, Late: 0, Early: 0, Misses: 2
6fb-> Hits: 3, Late: 0, Early: 0, Misses: 0
6fc-> Hits: 3, Late: 0, Early: 0, Misses: 0
6ff-> Hits: 3789, Late: 0, Early: 0, Misses: 0
700-> Hits: 323722, Late: 16061, Early: 0, Misses: 0
706-> Hits: 3700, Late: 174, Early: 0, Misses: 0
707-> Hits: 3342, Late: 0, Early: 0, Misses: 0
708-> Hits: 2, Late: 0, Early: 0, Misses: 0
70b-> Hits: 3, Late: 0, Early: 0, Misses: 0
70c-> Hits: 1533, Late: 0, Early: 0, Misses: 0
70f-> Hits: 23121, Late: 0, Early: 0, Misses: 0
710-> Hits: 302919, Late: 36376, Early: 0, Misses: 0
711-> Hits: 1532, Late: 0, Early: 0, Misses: 4
713-> Hits: 6, Late: 0, Early: 0, Misses: 0
714-> Hits: 3, Late: 0, Early: 0, Misses: 0
715-> Hits: 337924, Late: 117, Early: 0, Misses: 0
717-> Hits: 105, Late: 0, Early: 0, Misses: 0
718-> Hits: 5, Late: 0, Early: 0, Misses: 0
71b-> Hits: 1497, Late: 0, Early: 0, Misses: 0
71d-> Hits: 300474, Late: 0, Early: 0, Misses: 0
722-> Hits: 319501, Late: 24012, Early: 0, Misses: 4
723-> Hits: 2, Late: 1, Early: 0, Misses: 0
725-> Hits: 1, Late: 0, Early: 0, Misses: 3
727-> Hits: 437, Late: 0, Early: 0, Misses: 73
728-> Hits: 487743, Late: 0, Early: 0, Misses: 7
72a-> Hits: 3, Late: 0, Early: 0, Misses: 0
72c-> Hits: 1533, Late: 0, Early: 0, Misses: 3
72f-> Hits: 489, Late: 0, Early: 0, Misses: 0
730-> Hits: 223716, Late: 12690, Early: 0, Misses: 0
734-> Hits: 75, Late: 0, Early: 0, Misses: 0
737-> Hits: 1556, Late: 1, Early: 0, Misses: 0
738-> Hits: 205800, Late: 31863, Early: 0, Misses: 0
739-> Hits: 0, Late: 0, Early: 0, Misses: 1026
73b-> Hits: 0, Late: 0, Early: 0, Misses: 2
73c-> Hits: 1, Late: 2, Early: 0, Misses: 0
73f-> Hits: 440, Late: 0, Early: 0, Misses: 74
741-> Hits: 2, Late: 0, Early: 0, Misses: 0
745-> Hits: 1532, Late: 0, Early: 0, Misses: 0
746-> Hits: 0, Late: 0, Early: 0, Misses: 2
747-> Hits: 13, Late: 0, Early: 0, Misses: 0
74c-> Hits: 3, Late: 0, Early: 0, Misses: 0
74d-> Hits: 3, Late: 0, Early: 0, Misses: 0
74f-> Hits: 1472, Late: 0, Early: 0, Misses: 58
750-> Hits: 233538, Late: 6629, Early: 0, Misses: 0
753-> Hits: 3, Late: 0, Early: 0, Misses: 0
754-> Hits: 200141, Late: 31625, Early: 0, Misses: 0
757-> Hits: 1028, Late: 0, Early: 0, Misses: 0
758-> Hits: 1424, Late: 0, Early: 0, Misses: 0
75a-> Hits: 1533, Late: 0, Early: 0, Misses: 0
75b-> Hits: 3, Late: 0, Early: 0, Misses: 0
75c-> Hits: 2, Late: 0, Early: 0, Misses: 0
75f-> Hits: 1000, Late: 0, Early: 0, Misses: 0
763-> Hits: 3, Late: 0, Early: 0, Misses: 2
764-> Hits: 75, Late: 0, Early: 0, Misses: 0
765-> Hits: 2, Late: 0, Early: 0, Misses: 0
767-> Hits: 972, Late: 0, Early: 0, Misses: 17
768-> Hits: 1, Late: 0, Early: 0, Misses: 0
76b-> Hits: 5, Late: 0, Early: 0, Misses: 0
76d-> Hits: 0, Late: 0, Early: 0, Misses: 2
76f-> Hits: 30, Late: 0, Early: 0, Misses: 2
770-> Hits: 3071, Late: 0, Early: 0, Misses: 1
773-> Hits: 1022, Late: 0, Early: 0, Misses: 0
775-> Hits: 1535, Late: 0, Early: 0, Misses: 1
777-> Hits: 22, Late: 0, Early: 0, Misses: 5
778-> Hits: 5, Late: 0, Early: 0, Misses: 0
77a-> Hits: 1533, Late: 0, Early: 0, Misses: 0
77c-> Hits: 3, Late: 0, Early: 0, Misses: 2
77f-> Hits: 1536, Late: 0, Early: 0, Misses: 0
780-> Hits: 1, Late: 0, Early: 0, Misses: 0
785-> Hits: 1531, Late: 0, Early: 0, Misses: 2
787-> Hits: 1026, Late: 0, Early: 0, Misses: 0
788-> Hits: 0, Late: 0, Early: 0, Misses: 1
789-> Hits: 1532, Late: 0, Early: 0, Misses: 0
78a-> Hits: 2, Late: 0, Early: 0, Misses: 0
78d-> Hits: 3, Late: 0, Early: 0, Misses: 0
78f-> Hits: 63, Late: 0, Early: 0, Misses: 0
790-> Hits: 462914, Late: 96, Early: 0, Misses: 0
791-> Hits: 3, Late: 0, Early: 0, Misses: 0
794-> Hits: 1528, Late: 0, Early: 0, Misses: 4
795-> Hits: 684322, Late: 3, Early: 0, Misses: 0
799-> Hits: 2, Late: 1, Early: 0, Misses: 0
79c-> Hits: 0, Late: 1, Early: 0, Misses: 0
79d-> Hits: 156324, Late: 5, Early: 0, Misses: 4
79f-> Hits: 23, Late: 0, Early: 0, Misses: 0
7a1-> Hits: 3, Late: 2, Early: 0, Misses: 0
7a3-> Hits: 429209, Late: 18, Early: 0, Misses: 0
7a5-> Hits: 3, Late: 0, Early: 0, Misses: 0
7a6-> Hits: 3, Late: 0, Early: 0, Misses: 2
7a7-> Hits: 42, Late: 0, Early: 0, Misses: 973
7a8-> Hits: 1533, Late: 0, Early: 0, Misses: 1
7ab-> Hits: 3, Late: 0, Early: 0, Misses: 0
7ac-> Hits: 1529, Late: 0, Early: 0, Misses: 4
7ad-> Hits: 0, Late: 2, Early: 0, Misses: 1
7ae-> Hits: 1533, Late: 2, Early: 0, Misses: 0
7af-> Hits: 990, Late: 0, Early: 0, Misses: 0
7b0-> Hits: 2, Late: 0, Early: 0, Misses: 0
7b3-> Hits: 3, Late: 0, Early: 0, Misses: 0
7b5-> Hits: 0, Late: 0, Early: 0, Misses: 3
7b7-> Hits: 6, Late: 0, Early: 0, Misses: 0
7b8-> Hits: 1530, Late: 0, Early: 0, Misses: 3
7bf-> Hits: 42, Late: 0, Early: 0, Misses: 0
7c5-> Hits: 2, Late: 0, Early: 0, Misses: 0
7c7-> Hits: 0, Late: 0, Early: 0, Misses: 1026
7c9-> Hits: 1539, Late: 0, Early: 0, Misses: 0
7cb-> Hits: 2, Late: 0, Early: 0, Misses: 0
7cc-> Hits: 1, Late: 3, Early: 0, Misses: 0
7cd-> Hits: 1530, Late: 2, Early: 0, Misses: 4
7cf-> Hits: 3, Late: 0, Early: 0, Misses: 0
7d0-> Hits: 285, Late: 0, Early: 0, Misses: 0
7d1-> Hits: 1536, Late: 0, Early: 0, Misses: 2
7d3-> Hits: 6, Late: 0, Early: 0, Misses: 0
7d5-> Hits: 3, Late: 0, Early: 0, Misses: 0
7d6-> Hits: 6, Late: 0, Early: 0, Misses: 0
7d7-> Hits: 94, Late: 0, Early: 0, Misses: 0
7d9-> Hits: 1338, Late: 0, Early: 0, Misses: 3
7da-> Hits: 0, Late: 0, Early: 0, Misses: 2
7db-> Hits: 50, Late: 1, Early: 0, Misses: 0
7dc-> Hits: 1533, Late: 0, Early: 0, Misses: 4
7df-> Hits: 1607, Late: 0, Early: 0, Misses: 21
7e4-> Hits: 1533, Late: 0, Early: 0, Misses: 3
7e7-> Hits: 0, Late: 0, Early: 0, Misses: 1
7e8-> Hits: 1, Late: 0, Early: 0, Misses: 0
7ea-> Hits: 2721, Late: 0, Early: 0, Misses: 0
7eb-> Hits: 2, Late: 0, Early: 0, Misses: 0
7ee-> Hits: 2, Late: 0, Early: 0, Misses: 0
7ef-> Hits: 176, Late: 0, Early: 0, Misses: 0
7f2-> Hits: 1533, Late: 0, Early: 0, Misses: 0
7f3-> Hits: 48, Late: 0, Early: 0, Misses: 0
7f6-> Hits: 1525, Late: 0, Early: 0, Misses: 0
7f7-> Hits: 4, Late: 0, Early: 0, Misses: 1025
7fa-> Hits: 21, Late: 0, Early: 0, Misses: 0
7fb-> Hits: 1532, Late: 0, Early: 0, Misses: 0
7fc-> Hits: 1, Late: 0, Early: 0, Misses: 3
7fe-> Hits: 2, Late: 0, Early: 0, Misses: 0
7ff-> Hits: 2, Late: 1, Early: 0, Misses: 0
801-> Hits: 1, Late: 2, Early: 0, Misses: 0
803-> Hits: 1485, Late: 0, Early: 0, Misses: 0
805-> Hits: 73, Late: 0, Early: 0, Misses: 0
807-> Hits: 804, Late: 1, Early: 0, Misses: 0
808-> Hits: 3, Late: 0, Early: 0, Misses: 0
80a-> Hits: 3, Late: 0, Early: 0, Misses: 0
80e-> Hits: 2, Late: 0, Early: 0, Misses: 0
80f-> Hits: 746, Late: 0, Early: 0, Misses: 33
810-> Hits: 505863, Late: 10355, Early: 0, Misses: 0
813-> Hits: 3, Late: 0, Early: 0, Misses: 0
814-> Hits: 1536, Late: 0, Early: 0, Misses: 0
81a-> Hits: 0, Late: 0, Early: 0, Misses: 3
81b-> Hits: 3, Late: 0, Early: 0, Misses: 0
81c-> Hits: 1, Late: 2, Early: 0, Misses: 0
81d-> Hits: 1, Late: 0, Early: 0, Misses: 0
81f-> Hits: 11, Late: 0, Early: 0, Misses: 0
822-> Hits: 1, Late: 2, Early: 0, Misses: 0
823-> Hits: 3, Late: 0, Early: 0, Misses: 0
824-> Hits: 2, Late: 0, Early: 0, Misses: 0
825-> Hits: 3, Late: 3, Early: 0, Misses: 0
826-> Hits: 1, Late: 0, Early: 0, Misses: 0
827-> Hits: 14, Late: 2, Early: 0, Misses: 1
828-> Hits: 2, Late: 0, Early: 0, Misses: 0
829-> Hits: 1539, Late: 0, Early: 0, Misses: 0
82a-> Hits: 48, Late: 0, Early: 0, Misses: 0
82c-> Hits: 3, Late: 0, Early: 0, Misses: 3
82d-> Hits: 3, Late: 0, Early: 0, Misses: 0
82e-> Hits: 3, Late: 0, Early: 0, Misses: 0
82f-> Hits: 3, Late: 0, Early: 0, Misses: 0
830-> Hits: 244224, Late: 2157, Early: 0, Misses: 0
832-> Hits: 3, Late: 0, Early: 0, Misses: 0
833-> Hits: 3, Late: 0, Early: 0, Misses: 0
834-> Hits: 1536, Late: 0, Early: 0, Misses: 0
837-> Hits: 511, Late: 2, Early: 0, Misses: 2047
838-> Hits: 216902, Late: 25849, Early: 0, Misses: 0
839-> Hits: 51, Late: 0, Early: 0, Misses: 0
83b-> Hits: 1, Late: 2, Early: 0, Misses: 0
83c-> Hits: 0, Late: 0, Early: 0, Misses: 2
83f-> Hits: 2, Late: 1, Early: 0, Misses: 0
842-> Hits: 1, Late: 0, Early: 0, Misses: 0
845-> Hits: 1, Late: 0, Early: 0, Misses: 0
846-> Hits: 0, Late: 0, Early: 0, Misses: 3
848-> Hits: 0, Late: 0, Early: 0, Misses: 3
849-> Hits: 2, Late: 3, Early: 0, Misses: 0
84d-> Hits: 2, Late: 0, Early: 0, Misses: 0
84e-> Hits: 3, Late: 3, Early: 0, Misses: 0
850-> Hits: 5, Late: 1, Early: 0, Misses: 0
855-> Hits: 4, Late: 1, Early: 0, Misses: 0
856-> Hits: 3, Late: 0, Early: 0, Misses: 3
857-> Hits: 1026, Late: 0, Early: 0, Misses: 0
858-> Hits: 0, Late: 3, Early: 0, Misses: 0
85a-> Hits: 3, Late: 0, Early: 0, Misses: 0
85b-> Hits: 3, Late: 0, Early: 0, Misses: 0
85d-> Hits: 3, Late: 0, Early: 0, Misses: 0
85e-> Hits: 3, Late: 0, Early: 0, Misses: 0
85f-> Hits: 0, Late: 0, Early: 0, Misses: 2
862-> Hits: 2, Late: 1, Early: 0, Misses: 0
864-> Hits: 1, Late: 0, Early: 0, Misses: 0
865-> Hits: 2, Late: 0, Early: 0, Misses: 0
867-> Hits: 0, Late: 0, Early: 0, Misses: 2
869-> Hits: 0, Late: 0, Early: 0, Misses: 3
86b-> Hits: 1, Late: 2, Early: 0, Misses: 0
86c-> Hits: 0, Late: 0, Early: 0, Misses: 4
86d-> Hits: 1, Late: 0, Early: 0, Misses: 0
86e-> Hits: 50, Late: 1, Early: 0, Misses: 0
872-> Hits: 1, Late: 2, Early: 0, Misses: 0
875-> Hits: 0, Late: 3, Early: 0, Misses: 0
876-> Hits: 0, Late: 0, Early: 0, Misses: 1
877-> Hits: 0, Late: 1, Early: 0, Misses: 0
87a-> Hits: 1, Late: 2, Early: 0, Misses: 0
87b-> Hits: 1, Late: 0, Early: 0, Misses: 0
87d-> Hits: 5, Late: 0, Early: 0, Misses: 0
882-> Hits: 418, Late: 0, Early: 0, Misses: 925
884-> Hits: 1, Late: 0, Early: 0, Misses: 0
886-> Hits: 3, Late: 0, Early: 0, Misses: 0
887-> Hits: 3, Late: 1, Early: 0, Misses: 2
88b-> Hits: 2, Late: 0, Early: 0, Misses: 0
88e-> Hits: 1, Late: 1, Early: 0, Misses: 0
894-> Hits: 0, Late: 3, Early: 0, Misses: 0
895-> Hits: 0, Late: 0, Early: 0, Misses: 1
89a-> Hits: 1, Late: 0, Early: 0, Misses: 0
89d-> Hits: 2, Late: 0, Early: 0, Misses: 1
8a2-> Hits: 0, Late: 0, Early: 0, Misses: 2
8a3-> Hits: 3, Late: 1, Early: 0, Misses: 1
8a6-> Hits: 3, Late: 0, Early: 0, Misses: 0
8a7-> Hits: 3, Late: 0, Early: 0, Misses: 0
8aa-> Hits: 2, Late: 0, Early: 0, Misses: 0
8ad-> Hits: 2, Late: 0, Early: 0, Misses: 0
8ae-> Hits: 0, Late: 1, Early: 0, Misses: 1
8af-> Hits: 3, Late: 0, Early: 0, Misses: 0
8b0-> Hits: 0, Late: 0, Early: 0, Misses: 1
8b2-> Hits: 3, Late: 0, Early: 0, Misses: 0
8b3-> Hits: 3, Late: 0, Early: 0, Misses: 0
8b6-> Hits: 0, Late: 0, Early: 0, Misses: 1
8b7-> Hits: 0, Late: 1, Early: 0, Misses: 0
8b8-> Hits: 0, Late: 0, Early: 0, Misses: 1
8b9-> Hits: 0, Late: 0, Early: 0, Misses: 3
8bc-> Hits: 1, Late: 0, Early: 0, Misses: 0
8c1-> Hits: 2, Late: 2, Early: 0, Misses: 1
8c4-> Hits: 0, Late: 3, Early: 0, Misses: 0
8c8-> Hits: 3, Late: 0, Early: 0, Misses: 0
8cb-> Hits: 3, Late: 0, Early: 0, Misses: 0
8cd-> Hits: 1, Late: 0, Early: 0, Misses: 0
8d1-> Hits: 5, Late: 0, Early: 0, Misses: 0
8d2-> Hits: 3, Late: 0, Early: 0, Misses: 3
8d3-> Hits: 1, Late: 0, Early: 0, Misses: 0
8d4-> Hits: 1532, Late: 0, Early: 0, Misses: 0
8d5-> Hits: 0, Late: 0, Early: 0, Misses: 1
8d7-> Hits: 0, Late: 3, Early: 0, Misses: 0
8da-> Hits: 2, Late: 0, Early: 0, Misses: 0
8db-> Hits: 1, Late: 0, Early: 0, Misses: 0
8dc-> Hits: 1533, Late: 0, Early: 0, Misses: 0
8de-> Hits: 1, Late: 0, Early: 0, Misses: 0
8e1-> Hits: 0, Late: 3, Early: 0, Misses: 1
8e2-> Hits: 1, Late: 2, Early: 0, Misses: 3
8e4-> Hits: 1533, Late: 0, Early: 0, Misses: 0
8e7-> Hits: 2, Late: 0, Early: 0, Misses: 0
8ee-> Hits: 2, Late: 0, Early: 0, Misses: 0
8ef-> Hits: 4, Late: 0, Early: 0, Misses: 0
8f4-> Hits: 0, Late: 4, Early: 0, Misses: 0
8f6-> Hits: 1532, Late: 0, Early: 0, Misses: 0
8f7-> Hits: 1, Late: 0, Early: 0, Misses: 0
8fa-> Hits: 2, Late: 0, Early: 0, Misses: 1
8fb-> Hits: 57, Late: 4, Early: 0, Misses: 2
8fe-> Hits: 0, Late: 3, Early: 0, Misses: 0
902-> Hits: 3, Late: 0, Early: 0, Misses: 0
906-> Hits: 2, Late: 1, Early: 0, Misses: 0
90a-> Hits: 4, Late: 0, Early: 0, Misses: 0
90f-> Hits: 2, Late: 0, Early: 0, Misses: 0
911-> Hits: 3, Late: 1, Early: 0, Misses: 0
912-> Hits: 3, Late: 0, Early: 0, Misses: 0
915-> Hits: 0, Late: 0, Early: 0, Misses: 1
919-> Hits: 1, Late: 0, Early: 0, Misses: 0
91a-> Hits: 0, Late: 3, Early: 0, Misses: 0
91e-> Hits: 0, Late: 3, Early: 0, Misses: 0
920-> Hits: 500, Late: 0, Early: 0, Misses: 0
924-> Hits: 1, Late: 0, Early: 0, Misses: 0
925-> Hits: 1, Late: 0, Early: 0, Misses: 0
92a-> Hits: 4, Late: 0, Early: 0, Misses: 1
92c-> Hits: 513, Late: 2, Early: 0, Misses: 0
92d-> Hits: 2, Late: 0, Early: 0, Misses: 0
92e-> Hits: 1, Late: 0, Early: 0, Misses: 0
931-> Hits: 2, Late: 0, Early: 0, Misses: 0
932-> Hits: 5, Late: 0, Early: 0, Misses: 0
934-> Hits: 514, Late: 0, Early: 0, Misses: 0
935-> Hits: 1, Late: 0, Early: 0, Misses: 0
936-> Hits: 2, Late: 0, Early: 0, Misses: 0
93c-> Hits: 3, Late: 0, Early: 0, Misses: 0
93d-> Hits: 1, Late: 0, Early: 0, Misses: 0
93e-> Hits: 1, Late: 0, Early: 0, Misses: 0
940-> Hits: 0, Late: 1, Early: 0, Misses: 0
945-> Hits: 48, Late: 0, Early: 0, Misses: 0
947-> Hits: 6, Late: 0, Early: 0, Misses: 0
948-> Hits: 0, Late: 2, Early: 0, Misses: 0
949-> Hits: 0, Late: 0, Early: 0, Misses: 2
94a-> Hits: 0, Late: 0, Early: 0, Misses: 1
94b-> Hits: 1, Late: 0, Early: 0, Misses: 1
94c-> Hits: 2, Late: 0, Early: 0, Misses: 0
94f-> Hits: 3, Late: 0, Early: 0, Misses: 0
950-> Hits: 166801, Late: 3004, Early: 0, Misses: 0
953-> Hits: 3, Late: 0, Early: 0, Misses: 0
957-> Hits: 0, Late: 1, Early: 0, Misses: 0
959-> Hits: 3, Late: 1, Early: 0, Misses: 0
95b-> Hits: 49, Late: 0, Early: 0, Misses: 0
960-> Hits: 3, Late: 0, Early: 0, Misses: 0
961-> Hits: 2, Late: 0, Early: 0, Misses: 0
962-> Hits: 1, Late: 0, Early: 0, Misses: 0
964-> Hits: 7, Late: 0, Early: 0, Misses: 1
967-> Hits: 3, Late: 3, Early: 0, Misses: 0
968-> Hits: 387866, Late: 3911, Early: 0, Misses: 0
969-> Hits: 512, Late: 0, Early: 0, Misses: 1
96d-> Hits: 96019, Late: 3000, Early: 0, Misses: 0
96e-> Hits: 4, Late: 0, Early: 0, Misses: 0
972-> Hits: 389593, Late: 0, Early: 0, Misses: 0
973-> Hits: 3, Late: 0, Early: 0, Misses: 0
974-> Hits: 513, Late: 0, Early: 0, Misses: 0
975-> Hits: 0, Late: 0, Early: 0, Misses: 2
97b-> Hits: 1, Late: 0, Early: 0, Misses: 0
97c-> Hits: 1, Late: 0, Early: 0, Misses: 1
97f-> Hits: 1, Late: 0, Early: 0, Misses: 0
983-> Hits: 1478, Late: 0, Early: 0, Misses: 2
985-> Hits: 4, Late: 0, Early: 0, Misses: 3
986-> Hits: 8, Late: 0, Early: 0, Misses: 0
987-> Hits: 9, Late: 0, Early: 0, Misses: 0
989-> Hits: 8, Late: 0, Early: 0, Misses: 0
98b-> Hits: 6, Late: 0, Early: 0, Misses: 0
98d-> Hits: 6, Late: 0, Early: 0, Misses: 0
98e-> Hits: 2, Late: 0, Early: 0, Misses: 0
98f-> Hits: 6, Late: 0, Early: 0, Misses: 0
993-> Hits: 2, Late: 0, Early: 0, Misses: 0
995-> Hits: 6, Late: 0, Early: 0, Misses: 0
996-> Hits: 1, Late: 0, Early: 0, Misses: 0
997-> Hits: 48, Late: 0, Early: 0, Misses: 0
99a-> Hits: 1, Late: 0, Early: 0, Misses: 0
99b-> Hits: 2, Late: 0, Early: 0, Misses: 0
99c-> Hits: 108, Late: 0, Early: 0, Misses: 0
99d-> Hits: 0, Late: 0, Early: 0, Misses: 1
99e-> Hits: 2, Late: 0, Early: 0, Misses: 0
9a0-> Hits: 48, Late: 0, Early: 0, Misses: 0
9a1-> Hits: 6, Late: 0, Early: 0, Misses: 0
9a3-> Hits: 1497, Late: 0, Early: 0, Misses: 24
9a4-> Hits: 1, Late: 0, Early: 0, Misses: 0
9a6-> Hits: 48, Late: 0, Early: 0, Misses: 0
9aa-> Hits: 0, Late: 0, Early: 0, Misses: 1
9ac-> Hits: 1, Late: 0, Early: 0, Misses: 0
9ae-> Hits: 25, Late: 0, Early: 0, Misses: 0
9af-> Hits: 1, Late: 0, Early: 0, Misses: 0
9b0-> Hits: 15, Late: 0, Early: 0, Misses: 0
9b1-> Hits: 0, Late: 0, Early: 0, Misses: 1
9b5-> Hits: 2, Late: 0, Early: 0, Misses: 0
9b8-> Hits: 54, Late: 0, Early: 0, Misses: 0
9b9-> Hits: 1, Late: 0, Early: 0, Misses: 0
9ba-> Hits: 3, Late: 0, Early: 0, Misses: 0
9bd-> Hits: 0, Late: 0, Early: 0, Misses: 1
9be-> Hits: 6, Late: 0, Early: 0, Misses: 0
9c0-> Hits: 287040, Late: 28721, Early: 0, Misses: 6
9c4-> Hits: 6, Late: 0, Early: 0, Misses: 0
9c5-> Hits: 1, Late: 0, Early: 0, Misses: 0
9c6-> Hits: 70077, Late: 3582, Early: 0, Misses: 1
9c7-> Hits: 1, Late: 0, Early: 0, Misses: 0
9c8-> Hits: 1526, Late: 0, Early: 0, Misses: 8
9c9-> Hits: 5, Late: 0, Early: 0, Misses: 0
9cb-> Hits: 6, Late: 0, Early: 0, Misses: 0
9cd-> Hits: 391737, Late: 0, Early: 0, Misses: 44
9d0-> Hits: 298894, Late: 12452, Early: 0, Misses: 0
9d1-> Hits: 882, Late: 0, Early: 0, Misses: 0
9d2-> Hits: 92785, Late: 0, Early: 0, Misses: 6492
9d5-> Hits: 6, Late: 0, Early: 0, Misses: 0
9d6-> Hits: 307236, Late: 183, Early: 0, Misses: 0
9d8-> Hits: 2, Late: 0, Early: 0, Misses: 0
9db-> Hits: 76, Late: 0, Early: 0, Misses: 0
9dc-> Hits: 29, Late: 0, Early: 0, Misses: 0
9dd-> Hits: 1021, Late: 0, Early: 0, Misses: 6
9e0-> Hits: 390628, Late: 0, Early: 0, Misses: 1573
9e2-> Hits: 2, Late: 0, Early: 0, Misses: 0
9e4-> Hits: 262631, Late: 51513, Early: 0, Misses: 0
9e5-> Hits: 79150, Late: 21, Early: 0, Misses: 20661
9e7-> Hits: 6, Late: 0, Early: 0, Misses: 0
9e8-> Hits: 1, Late: 0, Early: 0, Misses: 0
9e9-> Hits: 80, Late: 0, Early: 0, Misses: 0
9ea-> Hits: 3, Late: 0, Early: 0, Misses: 0
9ed-> Hits: 0, Late: 3, Early: 0, Misses: 0
9ee-> Hits: 1, Late: 0, Early: 0, Misses: 0
9ef-> Hits: 3, Late: 0, Early: 0, Misses: 0
9f0-> Hits: 48, Late: 0, Early: 0, Misses: 0
9f1-> Hits: 6, Late: 0, Early: 0, Misses: 0
9f2-> Hits: 391734, Late: 0, Early: 0, Misses: 0
9f5-> Hits: 1, Late: 0, Early: 0, Misses: 0
9f6-> Hits: 893, Late: 0, Early: 0, Misses: 1
9f7-> Hits: 1, Late: 0, Early: 0, Misses: 0
9f8-> Hits: 6, Late: 0, Early: 0, Misses: 0
9f9-> Hits: 1, Late: 0, Early: 0, Misses: 0
9fa-> Hits: 374699, Late: 0, Early: 0, Misses: 17277
9fd-> Hits: 3, Late: 0, Early: 0, Misses: 0
9fe-> Hits: 1, Late: 0, Early: 0, Misses: 0
9ff-> Hits: 385320, Late: 3, Early: 0, Misses: 7457
a01-> Hits: 4, Late: 0, Early: 0, Misses: 0
a02-> Hits: 1533, Late: 0, Early: 0, Misses: 0
a03-> Hits: 0, Late: 3, Early: 0, Misses: 0
a06-> Hits: 2, Late: 0, Early: 0, Misses: 0
a08-> Hits: 1509, Late: 0, Early: 0, Misses: 24
a0a-> Hits: 0, Late: 3, Early: 0, Misses: 0
a0d-> Hits: 0, Late: 2, Early: 0, Misses: 1
a0f-> Hits: 62, Late: 0, Early: 0, Misses: 0
a10-> Hits: 3, Late: 0, Early: 0, Misses: 0
a11-> Hits: 392310, Late: 1, Early: 0, Misses: 6
a15-> Hits: 2, Late: 0, Early: 0, Misses: 0
a19-> Hits: 376231, Late: 0, Early: 0, Misses: 15793
a1a-> Hits: 1, Late: 0, Early: 0, Misses: 0
a1d-> Hits: 37, Late: 3, Early: 0, Misses: 0
a1e-> Hits: 387010, Late: 3, Early: 0, Misses: 5987
a24-> Hits: 1508, Late: 8, Early: 0, Misses: 20
a25-> Hits: 1, Late: 0, Early: 0, Misses: 0
a26-> Hits: 0, Late: 3, Early: 0, Misses: 0
a29-> Hits: 712, Late: 0, Early: 0, Misses: 4
a2b-> Hits: 0, Late: 0, Early: 0, Misses: 1
a2f-> Hits: 2, Late: 0, Early: 0, Misses: 0
a33-> Hits: 1, Late: 0, Early: 0, Misses: 1
a35-> Hits: 3, Late: 0, Early: 0, Misses: 0
a37-> Hits: 1, Late: 0, Early: 0, Misses: 0
a3a-> Hits: 60, Late: 3, Early: 0, Misses: 0
a3b-> Hits: 0, Late: 0, Early: 0, Misses: 1
a3d-> Hits: 0, Late: 3, Early: 0, Misses: 0
a3f-> Hits: 3, Late: 0, Early: 0, Misses: 0
a41-> Hits: 1, Late: 0, Early: 0, Misses: 0
a43-> Hits: 3, Late: 0, Early: 0, Misses: 0
a44-> Hits: 1, Late: 3, Early: 0, Misses: 0
a46-> Hits: 3, Late: 0, Early: 0, Misses: 0
a48-> Hits: 1587, Late: 0, Early: 0, Misses: 0
a49-> Hits: 1, Late: 0, Early: 0, Misses: 0
a4c-> Hits: 1, Late: 0, Early: 0, Misses: 0
a4d-> Hits: 953, Late: 0, Early: 0, Misses: 2
a4f-> Hits: 3, Late: 0, Early: 0, Misses: 0
a50-> Hits: 7, Late: 0, Early: 0, Misses: 0
a53-> Hits: 0, Late: 3, Early: 0, Misses: 0
a54-> Hits: 1, Late: 0, Early: 0, Misses: 0
a56-> Hits: 18, Late: 5, Early: 0, Misses: 0
a58-> Hits: 229, Late: 0, Early: 0, Misses: 2
a5a-> Hits: 0, Late: 3, Early: 0, Misses: 0
a60-> Hits: 2269, Late: 3, Early: 0, Misses: 0
a61-> Hits: 1, Late: 0, Early: 0, Misses: 0
a64-> Hits: 1, Late: 0, Early: 0, Misses: 0
a66-> Hits: 0, Late: 2, Early: 0, Misses: 0
a68-> Hits: 1506, Late: 3, Early: 0, Misses: 0
a6a-> Hits: 1542, Late: 0, Early: 0, Misses: 0
a6b-> Hits: 963, Late: 0, Early: 0, Misses: 5
a6d-> Hits: 1536, Late: 3, Early: 0, Misses: 0
a70-> Hits: 357, Late: 0, Early: 0, Misses: 0
a72-> Hits: 1542, Late: 0, Early: 0, Misses: 0
a73-> Hits: 0, Late: 3, Early: 0, Misses: 0
a74-> Hits: 1507, Late: 2, Early: 0, Misses: 27
a75-> Hits: 1536, Late: 3, Early: 0, Misses: 0
a76-> Hits: 392109, Late: 3, Early: 0, Misses: 77
a77-> Hits: 3, Late: 0, Early: 0, Misses: 0
a78-> Hits: 1736, Late: 0, Early: 0, Misses: 0
a79-> Hits: 1, Late: 0, Early: 0, Misses: 0
[...]
d28-> Hits: 52, Late: 0, Early: 0, Misses: 0
d2c-> Hits: 184, Late: 0, Early: 0, Misses: 0
d30-> Hits: 512, Late: 0, Early: 0, Misses: 0
d31-> Hits: 2, Late: 0, Early: 0, Misses: 0
d33-> Hits: 2, Late: 0, Early: 0, Misses: 0
d35-> Hits: 1669, Late: 1, Early: 0, Misses: 32
d38-> Hits: 511, Late: 0, Early: 0, Misses: 0
d39-> Hits: 0, Late: 5, Early: 0, Misses: 1
d3d-> Hits: 247, Late: 0, Early: 0, Misses: 1
d43-> Hits: 687, Late: 0, Early: 0, Misses: 0
d44-> Hits: 0, Late: 2, Early: 0, Misses: 0
d45-> Hits: 28, Late: 1, Early: 0, Misses: 1
d48-> Hits: 215, Late: 282, Early: 0, Misses: 0
d49-> Hits: 56, Late: 3, Early: 0, Misses: 0
d4a-> Hits: 0, Late: 2, Early: 0, Misses: 1
d4b-> Hits: 672, Late: 0, Early: 0, Misses: 1
d50-> Hits: 930, Late: 3, Early: 0, Misses: 3
d56-> Hits: 2, Late: 2, Early: 0, Misses: 1
d58-> Hits: 356, Late: 0, Early: 0, Misses: 0
d5b-> Hits: 54, Late: 0, Early: 0, Misses: 0
d5e-> Hits: 16, Late: 0, Early: 0, Misses: 0
d60-> Hits: 456963, Late: 56834, Early: 0, Misses: 0
d63-> Hits: 28, Late: 0, Early: 0, Misses: 0
d66-> Hits: 358437, Late: 0, Early: 0, Misses: 2
d6e-> Hits: 490454, Late: 246, Early: 0, Misses: 1
d6f-> Hits: 3, Late: 0, Early: 0, Misses: 0
d70-> Hits: 2, Late: 0, Early: 0, Misses: 0
d73-> Hits: 56, Late: 0, Early: 0, Misses: 0
d74-> Hits: 490427, Late: 0, Early: 0, Misses: 0
d75-> Hits: 2, Late: 0, Early: 0, Misses: 0
d76-> Hits: 40, Late: 0, Early: 0, Misses: 0
d78-> Hits: 8, Late: 3, Early: 0, Misses: 2
d7a-> Hits: 3, Late: 0, Early: 0, Misses: 0
d7b-> Hits: 49, Late: 0, Early: 0, Misses: 0
d7c-> Hits: 57372, Late: 0, Early: 0, Misses: 0
d7f-> Hits: 3, Late: 0, Early: 0, Misses: 0
d80-> Hits: 6, Late: 0, Early: 0, Misses: 1533
d82-> Hits: 3, Late: 0, Early: 0, Misses: 0
d83-> Hits: 0, Late: 3, Early: 0, Misses: 0
d84-> Hits: 276096, Late: 3583, Early: 0, Misses: 0
d86-> Hits: 1, Late: 0, Early: 0, Misses: 2
d89-> Hits: 371954, Late: 0, Early: 0, Misses: 3
d8b-> Hits: 586, Late: 0, Early: 0, Misses: 7
d8e-> Hits: 0, Late: 0, Early: 0, Misses: 2
d8f-> Hits: 2, Late: 1, Early: 0, Misses: 0
d90-> Hits: 5, Late: 1, Early: 0, Misses: 0
d91-> Hits: 181425, Late: 7084, Early: 0, Misses: 0
d93-> Hits: 746, Late: 0, Early: 0, Misses: 1533
d95-> Hits: 3, Late: 0, Early: 0, Misses: 0
d96-> Hits: 5, Late: 1, Early: 0, Misses: 0
d99-> Hits: 3, Late: 0, Early: 0, Misses: 0
d9a-> Hits: 95206, Late: 0, Early: 0, Misses: 0
d9b-> Hits: 2256, Late: 0, Early: 0, Misses: 0
d9d-> Hits: 1, Late: 0, Early: 0, Misses: 2
d9e-> Hits: 1, Late: 0, Early: 0, Misses: 0
da0-> Hits: 2, Late: 0, Early: 0, Misses: 0
da2-> Hits: 273135, Late: 80355, Early: 0, Misses: 0
da3-> Hits: 1490, Late: 1, Early: 0, Misses: 0
da6-> Hits: 3, Late: 0, Early: 0, Misses: 0
da7-> Hits: 14059, Late: 0, Early: 0, Misses: 0
da8-> Hits: 3, Late: 0, Early: 0, Misses: 0
dab-> Hits: 3, Late: 47, Early: 0, Misses: 1486
dac-> Hits: 2, Late: 2, Early: 0, Misses: 0
dae-> Hits: 60, Late: 0, Early: 0, Misses: 0
daf-> Hits: 420104, Late: 362, Early: 0, Misses: 2
db0-> Hits: 192, Late: 0, Early: 0, Misses: 3
db2-> Hits: 1, Late: 2, Early: 0, Misses: 0
db3-> Hits: 1, Late: 0, Early: 0, Misses: 0
db4-> Hits: 371373, Late: 1, Early: 0, Misses: 2
db5-> Hits: 3, Late: 0, Early: 0, Misses: 0
db7-> Hits: 1038, Late: 3, Early: 0, Misses: 0
db8-> Hits: 1, Late: 1, Early: 0, Misses: 0
db9-> Hits: 3, Late: 0, Early: 0, Misses: 0
dbb-> Hits: 48, Late: 0, Early: 0, Misses: 2
dbc-> Hits: 444620, Late: 12863, Early: 0, Misses: 0
dbe-> Hits: 1, Late: 2, Early: 0, Misses: 0
dc0-> Hits: 1, Late: 0, Early: 0, Misses: 0
dc2-> Hits: 2, Late: 0, Early: 0, Misses: 0
dc3-> Hits: 2, Late: 0, Early: 0, Misses: 1391
dc4-> Hits: 2, Late: 2, Early: 0, Misses: 0
dc6-> Hits: 430855, Late: 52420, Early: 0, Misses: 0
dc9-> Hits: 0, Late: 2, Early: 0, Misses: 1
dcb-> Hits: 144268, Late: 0, Early: 0, Misses: 0
dcd-> Hits: 1, Late: 0, Early: 0, Misses: 0
dce-> Hits: 2, Late: 0, Early: 0, Misses: 0
dcf-> Hits: 5, Late: 0, Early: 0, Misses: 0
dd2-> Hits: 3, Late: 0, Early: 0, Misses: 0
dd3-> Hits: 384522, Late: 67, Early: 0, Misses: 43763
dd6-> Hits: 1, Late: 2, Early: 0, Misses: 0
dd7-> Hits: 5, Late: 0, Early: 0, Misses: 1
dd8-> Hits: 140775, Late: 0, Early: 0, Misses: 2
dda-> Hits: 3, Late: 0, Early: 0, Misses: 0
ddb-> Hits: 1023, Late: 0, Early: 0, Misses: 1484
ddc-> Hits: 975, Late: 0, Early: 0, Misses: 4
de0-> Hits: 332200, Late: 64628, Early: 0, Misses: 0
de1-> Hits: 0, Late: 0, Early: 0, Misses: 3
de2-> Hits: 1, Late: 0, Early: 0, Misses: 0
de4-> Hits: 990, Late: 0, Early: 0, Misses: 29
de5-> Hits: 3, Late: 0, Early: 0, Misses: 0
de7-> Hits: 3, Late: 0, Early: 0, Misses: 0
de8-> Hits: 16, Late: 0, Early: 0, Misses: 0
de9-> Hits: 22857, Late: 0, Early: 0, Misses: 0
dea-> Hits: 2, Late: 3, Early: 0, Misses: 2
deb-> Hits: 48, Late: 0, Early: 0, Misses: 0
ded-> Hits: 640, Late: 2, Early: 0, Misses: 0
dee-> Hits: 2, Late: 0, Early: 0, Misses: 0
def-> Hits: 1, Late: 2, Early: 0, Misses: 0
df0-> Hits: 22, Late: 0, Early: 0, Misses: 2
df1-> Hits: 351698, Late: 68599, Early: 0, Misses: 0
df3-> Hits: 1533, Late: 0, Early: 0, Misses: 0
df5-> Hits: 867, Late: 3, Early: 0, Misses: 203
df7-> Hits: 76763, Late: 0, Early: 0, Misses: 0
dfb-> Hits: 1536, Late: 0, Early: 0, Misses: 0
dfd-> Hits: 861, Late: 3, Early: 0, Misses: 206
dff-> Hits: 362637, Late: 21, Early: 0, Misses: 68258
e00-> Hits: 363207, Late: 16219, Early: 0, Misses: 0
e01-> Hits: 3, Late: 0, Early: 0, Misses: 0
e03-> Hits: 2383, Late: 0, Early: 0, Misses: 182
e04-> Hits: 119312, Late: 0, Early: 0, Misses: 0
e05-> Hits: 1004, Late: 0, Early: 0, Misses: 0
e06-> Hits: 3, Late: 3, Early: 0, Misses: 0
e09-> Hits: 3, Late: 0, Early: 0, Misses: 0
e0a-> Hits: 6, Late: 0, Early: 0, Misses: 0
e0b-> Hits: 3, Late: 2, Early: 0, Misses: 0
e0c-> Hits: 363584, Late: 14, Early: 0, Misses: 62956
e0e-> Hits: 2, Late: 0, Early: 0, Misses: 0
e12-> Hits: 5, Late: 1, Early: 0, Misses: 1533
e14-> Hits: 3, Late: 0, Early: 0, Misses: 0
e16-> Hits: 373033, Late: 48504, Early: 0, Misses: 1
e18-> Hits: 25, Late: 0, Early: 0, Misses: 0
e19-> Hits: 1024, Late: 0, Early: 0, Misses: 0
e1a-> Hits: 5, Late: 1, Early: 0, Misses: 0
e1c-> Hits: 3, Late: 0, Early: 0, Misses: 0
e1d-> Hits: 890, Late: 0, Early: 0, Misses: 4
e1e-> Hits: 923, Late: 0, Early: 0, Misses: 1
e1f-> Hits: 3, Late: 0, Early: 0, Misses: 0
e21-> Hits: 0, Late: 1, Early: 0, Misses: 1
e23-> Hits: 3, Late: 0, Early: 0, Misses: 0
e24-> Hits: 497883, Late: 27132, Early: 0, Misses: 0
e29-> Hits: 27, Late: 0, Early: 0, Misses: 0
e2a-> Hits: 2, Late: 0, Early: 0, Misses: 0
e2b-> Hits: 4, Late: 2, Early: 0, Misses: 0
e2c-> Hits: 3, Late: 0, Early: 0, Misses: 0
e2e-> Hits: 3, Late: 2, Early: 0, Misses: 1
e30-> Hits: 64, Late: 0, Early: 0, Misses: 0
e31-> Hits: 268447, Late: 0, Early: 0, Misses: 10
e32-> Hits: 373, Late: 5, Early: 0, Misses: 0
e34-> Hits: 2, Late: 0, Early: 0, Misses: 0
e37-> Hits: 0, Late: 0, Early: 0, Misses: 1
e39-> Hits: 3, Late: 0, Early: 0, Misses: 0
e3a-> Hits: 1, Late: 0, Early: 0, Misses: 2
e3b-> Hits: 3, Late: 0, Early: 0, Misses: 0
e3c-> Hits: 50, Late: 0, Early: 0, Misses: 0
e3f-> Hits: 490467, Late: 33226, Early: 0, Misses: 0
e40-> Hits: 2, Late: 0, Early: 0, Misses: 0
e41-> Hits: 2, Late: 0, Early: 0, Misses: 0
e46-> Hits: 14, Late: 0, Early: 0, Misses: 0
e49-> Hits: 3, Late: 3, Early: 0, Misses: 0
e4b-> Hits: 260151, Late: 0, Early: 0, Misses: 1
e4c-> Hits: 30, Late: 0, Early: 0, Misses: 0
e4e-> Hits: 974, Late: 0, Early: 0, Misses: 11
e4f-> Hits: 1, Late: 0, Early: 0, Misses: 1
e50-> Hits: 2, Late: 0, Early: 0, Misses: 0
e54-> Hits: 940, Late: 0, Early: 0, Misses: 3
e55-> Hits: 26, Late: 0, Early: 0, Misses: 0
e56-> Hits: 26, Late: 0, Early: 0, Misses: 0
e57-> Hits: 0, Late: 0, Early: 0, Misses: 3
e58-> Hits: 25, Late: 0, Early: 0, Misses: 0
e59-> Hits: 2, Late: 0, Early: 0, Misses: 0
e5a-> Hits: 914, Late: 0, Early: 0, Misses: 134
e5c-> Hits: 525317, Late: 0, Early: 0, Misses: 3
e5d-> Hits: 3, Late: 0, Early: 0, Misses: 0
e5e-> Hits: 55, Late: 0, Early: 0, Misses: 0
e60-> Hits: 489, Late: 110, Early: 0, Misses: 0
e63-> Hits: 2, Late: 0, Early: 0, Misses: 0
e65-> Hits: 4, Late: 0, Early: 0, Misses: 0
e68-> Hits: 344413, Late: 0, Early: 0, Misses: 2
e69-> Hits: 788, Late: 0, Early: 0, Misses: 15
e6a-> Hits: 446, Late: 140, Early: 0, Misses: 0
e6b-> Hits: 5, Late: 0, Early: 0, Misses: 1
e6f-> Hits: 45, Late: 0, Early: 0, Misses: 3
e70-> Hits: 0, Late: 0, Early: 0, Misses: 2
e71-> Hits: 3, Late: 1, Early: 0, Misses: 0
e74-> Hits: 3, Late: 0, Early: 0, Misses: 3
e76-> Hits: 423119, Late: 0, Early: 0, Misses: 1
e77-> Hits: 2, Late: 0, Early: 0, Misses: 0
e7a-> Hits: 3, Late: 0, Early: 0, Misses: 0
e7b-> Hits: 25, Late: 0, Early: 0, Misses: 0
e7c-> Hits: 2, Late: 0, Early: 0, Misses: 3
e7d-> Hits: 1, Late: 1, Early: 0, Misses: 0
e7e-> Hits: 522237, Late: 0, Early: 0, Misses: 3
e80-> Hits: 382782, Late: 10, Early: 0, Misses: 0
e81-> Hits: 12, Late: 0, Early: 0, Misses: 0
e84-> Hits: 4, Late: 0, Early: 0, Misses: 2
e86-> Hits: 525218, Late: 0, Early: 0, Misses: 3
e87-> Hits: 3, Late: 0, Early: 0, Misses: 0
e88-> Hits: 404267, Late: 4488, Early: 0, Misses: 2
e8c-> Hits: 3, Late: 0, Early: 0, Misses: 0
e8e-> Hits: 17583, Late: 0, Early: 0, Misses: 0
e8f-> Hits: 0, Late: 3, Early: 0, Misses: 0
e90-> Hits: 3, Late: 0, Early: 0, Misses: 2
e91-> Hits: 1, Late: 1, Early: 0, Misses: 0
e92-> Hits: 538437, Late: 182, Early: 0, Misses: 8974
e96-> Hits: 83673, Late: 0, Early: 0, Misses: 3
e98-> Hits: 509246, Late: 31468, Early: 0, Misses: 0
e9d-> Hits: 60, Late: 0, Early: 0, Misses: 0
e9e-> Hits: 595813, Late: 37731, Early: 0, Misses: 1
e9f-> Hits: 60, Late: 0, Early: 0, Misses: 0
ea0-> Hits: 54, Late: 0, Early: 0, Misses: 0
ea1-> Hits: 60, Late: 0, Early: 0, Misses: 0
ea2-> Hits: 2, Late: 0, Early: 0, Misses: 1
ea3-> Hits: 60, Late: 0, Early: 0, Misses: 0
ea5-> Hits: 62, Late: 0, Early: 0, Misses: 0
ea6-> Hits: 328463, Late: 0, Early: 0, Misses: 1
ea7-> Hits: 255471, Late: 15100, Early: 0, Misses: 2
eaa-> Hits: 3, Late: 0, Early: 0, Misses: 0
eab-> Hits: 3, Late: 0, Early: 0, Misses: 0
eae-> Hits: 387574, Late: 6832, Early: 0, Misses: 0
eaf-> Hits: 3, Late: 0, Early: 0, Misses: 0
eb0-> Hits: 1539, Late: 0, Early: 0, Misses: 0
eb1-> Hits: 5, Late: 0, Early: 0, Misses: 0
eb3-> Hits: 3, Late: 0, Early: 0, Misses: 0
eb4-> Hits: 496637, Late: 29599, Early: 0, Misses: 0
eb5-> Hits: 3, Late: 0, Early: 0, Misses: 0
eb6-> Hits: 2, Late: 0, Early: 0, Misses: 0
eb7-> Hits: 905, Late: 2, Early: 0, Misses: 0
eb8-> Hits: 1542, Late: 0, Early: 0, Misses: 0
ebc-> Hits: 795, Late: 0, Early: 0, Misses: 0
ebe-> Hits: 1537, Late: 0, Early: 0, Misses: 2
ebf-> Hits: 868, Late: 0, Early: 0, Misses: 0
ec0-> Hits: 486106, Late: 16674, Early: 0, Misses: 0
ec4-> Hits: 936, Late: 0, Early: 0, Misses: 0
ec7-> Hits: 2, Late: 0, Early: 0, Misses: 0
ec9-> Hits: 57, Late: 3, Early: 0, Misses: 0
eca-> Hits: 1539, Late: 0, Early: 0, Misses: 0
ecc-> Hits: 6, Late: 0, Early: 0, Misses: 0
ecd-> Hits: 4, Late: 0, Early: 0, Misses: 0
ece-> Hits: 55, Late: 0, Early: 0, Misses: 0
ecf-> Hits: 0, Late: 0, Early: 0, Misses: 1024
ed0-> Hits: 1533, Late: 1026, Early: 0, Misses: 0
ed3-> Hits: 44192, Late: 365, Early: 0, Misses: 0
ed4-> Hits: 984, Late: 0, Early: 0, Misses: 0
ed7-> Hits: 2437, Late: 0, Early: 0, Misses: 0
ed8-> Hits: 2, Late: 0, Early: 0, Misses: 0
eda-> Hits: 26146, Late: 3527, Early: 0, Misses: 0
edc-> Hits: 992, Late: 0, Early: 0, Misses: 0
edf-> Hits: 1, Late: 0, Early: 0, Misses: 1
ee0-> Hits: 1590, Late: 3, Early: 0, Misses: 0
ee2-> Hits: 1085, Late: 0, Early: 0, Misses: 0
ee4-> Hits: 386512, Late: 2, Early: 0, Misses: 0
ee7-> Hits: 23, Late: 0, Early: 0, Misses: 0
ee8-> Hits: 1533, Late: 0, Early: 0, Misses: 0
eec-> Hits: 2, Late: 5, Early: 0, Misses: 0
eee-> Hits: 7, Late: 0, Early: 0, Misses: 0
eef-> Hits: 11, Late: 0, Early: 0, Misses: 0
ef0-> Hits: 602070, Late: 28867, Early: 0, Misses: 0
ef1-> Hits: 1, Late: 2, Early: 0, Misses: 0
ef2-> Hits: 4, Late: 2, Early: 0, Misses: 0
ef4-> Hits: 60, Late: 0, Early: 0, Misses: 0
ef5-> Hits: 54, Late: 0, Early: 0, Misses: 0
ef6-> Hits: 617959, Late: 0, Early: 0, Misses: 0
ef7-> Hits: 12, Late: 0, Early: 0, Misses: 0
ef8-> Hits: 548535, Late: 0, Early: 0, Misses: 0
efd-> Hits: 57, Late: 3, Early: 0, Misses: 0
efe-> Hits: 618426, Late: 193, Early: 0, Misses: 0
eff-> Hits: 11, Late: 0, Early: 0, Misses: 0
f00-> Hits: 453219, Late: 0, Early: 0, Misses: 0
f02-> Hits: 608314, Late: 180, Early: 0, Misses: 0
f03-> Hits: 1114, Late: 1, Early: 0, Misses: 0
f08-> Hits: 542142, Late: 0, Early: 0, Misses: 0
f09-> Hits: 43, Late: 0, Early: 0, Misses: 0
f0a-> Hits: 568393, Late: 25260, Early: 0, Misses: 0
f0b-> Hits: 1022, Late: 0, Early: 0, Misses: 0
f0c-> Hits: 3, Late: 0, Early: 0, Misses: 0
f0d-> Hits: 1020, Late: 1, Early: 0, Misses: 1
f10-> Hits: 481533, Late: 29569, Early: 0, Misses: 0
f15-> Hits: 5, Late: 0, Early: 0, Misses: 985
f17-> Hits: 551544, Late: 0, Early: 0, Misses: 2
f18-> Hits: 22292, Late: 0, Early: 0, Misses: 0
f1c-> Hits: 3, Late: 0, Early: 0, Misses: 0
f1f-> Hits: 237227, Late: 1365, Early: 0, Misses: 0
f20-> Hits: 79962, Late: 0, Early: 0, Misses: 0
f21-> Hits: 0, Late: 1, Early: 0, Misses: 1
f22-> Hits: 3, Late: 3, Early: 0, Misses: 0
f25-> Hits: 235540, Late: 6549, Early: 0, Misses: 0
f29-> Hits: 2, Late: 0, Early: 0, Misses: 0
f2c-> Hits: 2, Late: 0, Early: 0, Misses: 0
f2d-> Hits: 982, Late: 1, Early: 0, Misses: 8
f2e-> Hits: 1539, Late: 0, Early: 0, Misses: 0
f30-> Hits: 375800, Late: 8500, Early: 0, Misses: 0
f31-> Hits: 914, Late: 0, Early: 0, Misses: 0
f38-> Hits: 0, Late: 0, Early: 0, Misses: 2
f39-> Hits: 845, Late: 0, Early: 0, Misses: 0
f3d-> Hits: 0, Late: 0, Early: 0, Misses: 1024
f3f-> Hits: 1539, Late: 0, Early: 0, Misses: 0
f40-> Hits: 2, Late: 0, Early: 0, Misses: 0
f41-> Hits: 77, Late: 0, Early: 0, Misses: 0
f47-> Hits: 16, Late: 0, Early: 0, Misses: 0
f48-> Hits: 0, Late: 0, Early: 0, Misses: 1026
f49-> Hits: 2092, Late: 0, Early: 0, Misses: 0
f4d-> Hits: 1533, Late: 0, Early: 0, Misses: 0
f50-> Hits: 978, Late: 25, Early: 0, Misses: 1024
f51-> Hits: 898, Late: 3, Early: 0, Misses: 171
f53-> Hits: 0, Late: 0, Early: 0, Misses: 2
f54-> Hits: 1022, Late: 0, Early: 0, Misses: 0
f56-> Hits: 0, Late: 1, Early: 0, Misses: 1
f57-> Hits: 3, Late: 0, Early: 0, Misses: 0
f58-> Hits: 254375, Late: 2383, Early: 0, Misses: 1023
f59-> Hits: 11, Late: 0, Early: 0, Misses: 0
f5a-> Hits: 988, Late: 15, Early: 0, Misses: 0
f5b-> Hits: 0, Late: 0, Early: 0, Misses: 2
f5d-> Hits: 61004, Late: 5695, Early: 0, Misses: 0
f60-> Hits: 102, Late: 3, Early: 0, Misses: 0
f61-> Hits: 14, Late: 0, Early: 0, Misses: 0
f62-> Hits: 62, Late: 0, Early: 0, Misses: 0
f63-> Hits: 60, Late: 0, Early: 0, Misses: 0
f64-> Hits: 60, Late: 0, Early: 0, Misses: 0
f66-> Hits: 9, Late: 0, Early: 0, Misses: 0
f68-> Hits: 95, Late: 3, Early: 0, Misses: 782
f69-> Hits: 0, Late: 0, Early: 0, Misses: 3
f6b-> Hits: 256488, Late: 7, Early: 0, Misses: 374
f6c-> Hits: 3, Late: 3, Early: 0, Misses: 0
f6f-> Hits: 3, Late: 0, Early: 0, Misses: 0
f70-> Hits: 60884, Late: 13, Early: 0, Misses: 6261
f73-> Hits: 2, Late: 1, Early: 0, Misses: 0
f74-> Hits: 0, Late: 0, Early: 0, Misses: 6
f78-> Hits: 12, Late: 0, Early: 0, Misses: 26
f79-> Hits: 258488, Late: 35, Early: 0, Misses: 0
f7e-> Hits: 908, Late: 0, Early: 0, Misses: 47
f7f-> Hits: 64332, Late: 0, Early: 0, Misses: 2
f80-> Hits: 838, Late: 3, Early: 0, Misses: 0
f81-> Hits: 3, Late: 0, Early: 0, Misses: 0
f84-> Hits: 1, Late: 0, Early: 0, Misses: 2
f86-> Hits: 896, Late: 0, Early: 0, Misses: 177
f87-> Hits: 0, Late: 2, Early: 0, Misses: 3
f88-> Hits: 835, Late: 3, Early: 0, Misses: 0
f89-> Hits: 3, Late: 0, Early: 0, Misses: 0
f8c-> Hits: 2, Late: 0, Early: 0, Misses: 0
f8e-> Hits: 900, Late: 0, Early: 0, Misses: 169
f8f-> Hits: 3, Late: 0, Early: 0, Misses: 0
f90-> Hits: 2, Late: 0, Early: 0, Misses: 1
f91-> Hits: 3, Late: 0, Early: 0, Misses: 0
f93-> Hits: 2, Late: 0, Early: 0, Misses: 1
f94-> Hits: 0, Late: 1, Early: 0, Misses: 2
f96-> Hits: 1, Late: 0, Early: 0, Misses: 0
f98-> Hits: 32, Late: 0, Early: 0, Misses: 20
f99-> Hits: 851, Late: 0, Early: 0, Misses: 0
f9b-> Hits: 3, Late: 0, Early: 0, Misses: 0
f9c-> Hits: 3, Late: 0, Early: 0, Misses: 0
f9e-> Hits: 3, Late: 0, Early: 0, Misses: 0
fa0-> Hits: 1027, Late: 0, Early: 0, Misses: 0
fa1-> Hits: 425, Late: 0, Early: 0, Misses: 52
fa4-> Hits: 4, Late: 0, Early: 0, Misses: 0
fa7-> Hits: 6, Late: 0, Early: 0, Misses: 0
fa8-> Hits: 1020, Late: 0, Early: 0, Misses: 0
fa9-> Hits: 1, Late: 0, Early: 0, Misses: 2
faa-> Hits: 3, Late: 0, Early: 0, Misses: 0
fae-> Hits: 3, Late: 0, Early: 0, Misses: 0
fb0-> Hits: 5, Late: 0, Early: 0, Misses: 0
fb1-> Hits: 653, Late: 0, Early: 0, Misses: 134
fb6-> Hits: 2, Late: 1, Early: 0, Misses: 1
fb8-> Hits: 1466, Late: 0, Early: 0, Misses: 0
fb9-> Hits: 320, Late: 0, Early: 0, Misses: 0
fbb-> Hits: 0, Late: 2, Early: 0, Misses: 0
fbc-> Hits: 2, Late: 0, Early: 0, Misses: 0
fbe-> Hits: 218, Late: 0, Early: 0, Misses: 0
fbf-> Hits: 1536, Late: 0, Early: 0, Misses: 0
fc0-> Hits: 3, Late: 0, Early: 0, Misses: 0
fc1-> Hits: 882, Late: 3, Early: 0, Misses: 187
fc2-> Hits: 3, Late: 0, Early: 0, Misses: 0
fc4-> Hits: 4, Late: 0, Early: 0, Misses: 2
fc5-> Hits: 6, Late: 0, Early: 0, Misses: 0
fc9-> Hits: 2, Late: 0, Early: 0, Misses: 0
fcb-> Hits: 8, Late: 0, Early: 0, Misses: 0
fcc-> Hits: 0, Late: 0, Early: 0, Misses: 3
fcf-> Hits: 1533, Late: 3, Early: 0, Misses: 0
fd0-> Hits: 4, Late: 0, Early: 0, Misses: 0
fd1-> Hits: 919, Late: 0, Early: 0, Misses: 0
fd5-> Hits: 3, Late: 0, Early: 0, Misses: 0
fd7-> Hits: 1533, Late: 3, Early: 0, Misses: 0
fd8-> Hits: 256704, Late: 1209, Early: 0, Misses: 4
fd9-> Hits: 922, Late: 0, Early: 0, Misses: 0
fda-> Hits: 3, Late: 0, Early: 0, Misses: 0
fdd-> Hits: 67016, Late: 2074, Early: 0, Misses: 0
fdf-> Hits: 9, Late: 0, Early: 0, Misses: 0
fe0-> Hits: 2, Late: 1, Early: 0, Misses: 2
fe4-> Hits: 1, Late: 0, Early: 0, Misses: 2
fe6-> Hits: 17, Late: 0, Early: 0, Misses: 0
feb-> Hits: 256417, Late: 6, Early: 0, Misses: 812
fec-> Hits: 0, Late: 3, Early: 0, Misses: 2
fef-> Hits: 3, Late: 2, Early: 0, Misses: 1
ff0-> Hits: 65198, Late: 33, Early: 0, Misses: 6844
ff2-> Hits: 14, Late: 0, Early: 0, Misses: 0
ff3-> Hits: 2, Late: 0, Early: 0, Misses: 0
ff5-> Hits: 3, Late: 0, Early: 0, Misses: 0
ff6-> Hits: 3, Late: 0, Early: 0, Misses: 0
ff8-> Hits: 2, Late: 0, Early: 0, Misses: 1
ff9-> Hits: 258714, Late: 35, Early: 0, Misses: 0
ffb-> Hits: 1, Late: 0, Early: 0, Misses: 2
fff-> Hits: 257635, Late: 36, Early: 0, Misses: 1170
Total misses (from ip) 3159357
Total accesses (misses) 131316425 3159357
Pref: Addr 0 IP 0 Current 0

DRAM Statistics
 CHANNEL 0
 RQ ROW_BUFFER_HIT:    2265810  ROW_BUFFER_MISS:   10593456
 DBUS_CONGESTED:        711
 WQ ROW_BUFFER_HIT:     790239  ROW_BUFFER_MISS:    2710759  FULL:      12276

 AVG_CONGESTED_CYCLE: 5
 All warmup complete: 2
Channel 0 Bank busy for read cycles: 0
Channel 0 Bank busy for write cycles: 0
Channel 0
Rank 0
0banks busy for read cycles: 25839094
0banks busy for write cycles: 32844
1banks busy for read cycles: 73554942
1banks busy for write cycles: 5033745
2banks busy for read cycles: 119623347
2banks busy for write cycles: 1415801
3banks busy for read cycles: 110768047
3banks busy for write cycles: 865225
4banks busy for read cycles: 84313906
4banks busy for write cycles: 835752
5banks busy for read cycles: 44959533
5banks busy for write cycles: 819917
6banks busy for read cycles: 29767874
6banks busy for write cycles: 908596
7banks busy for read cycles: 19824518
7banks busy for write cycles: 4869788
8banks busy for read cycles: 30082220
8banks busy for write cycles: 77226105

CPU 0 Branch Prediction Accuracy: 99.7473% MPKI: 0.087742 Average ROB Occupancy at Mispredict: 94.2194
Branch types
NOT_BRANCH: 482641027 96.5282%
BRANCH_DIRECT_JUMP: 2896 0.0005792%
BRANCH_INDIRECT: 0 0%
BRANCH_CONDITIONAL: 17355873 3.47117%
BRANCH_DIRECT_CALL: 275 5.5e-05%
BRANCH_INDIRECT_CALL: 0 0%
BRANCH_RETURN: 275 5.5e-05%
BRANCH_OTHER: 0 0%

DRAM PAGES: 1048576
Allocated PAGES: 64034
