Initialize SIGNATURE TABLE
ST_SET: 1
ST_WAY: 256
ST_TAG_BIT: 16
ST_TAG_MASK: ffff

Initialize PATTERN TABLE
PT_SET: 512
PT_WAY: 4
SIG_DELTA_BIT: 7
C_SIG_BIT: 4
C_DELTA_BIT: 4

Initialize PREFETCH FILTER
FILTER_SET: 1024

*** ChampSim Multicore Out-of-Order Simulator ***

Warmup Instructions: 50000000
Simulation Instructions: 50000000
Number of CPUs: 1
LLC sets: 2048
LLC ways: 16
Off-chip DRAM Size: 4096 MB Channels: 1 Width: 64-bit Data Rate: 6400 MT/s
CPU 0 runs ./tracer/traces/607.cactuBSSN_s-3477B.champsimtrace.xz
.xz
CPU 0 Bimodal branch predictor
BTB has LRU replacement policy
ITLB has LRU replacement policy
DTLB has LRU replacement policy
STLB has LRU replacement policy
L1I has LRU replacement policy
CPU 0 L1D Berti prefetcher
L1D has LRU replacement policy
ST_WAYS: 256
PT_SETS: 512
L2C has LRU replacement policy
Heartbeat CPU 0 instructions: 10000000 cycles: 3665159 heartbeat IPC: 2.72839 cumulative IPC: 2.72839 (Simulation time: 0 hr 2 min 5 sec) 
Heartbeat CPU 0 instructions: 20000003 cycles: 7329623 heartbeat IPC: 2.72891 cumulative IPC: 2.72865 (Simulation time: 0 hr 4 min 26 sec) 
Heartbeat CPU 0 instructions: 30000000 cycles: 10994001 heartbeat IPC: 2.72898 cumulative IPC: 2.72876 (Simulation time: 0 hr 7 min 2 sec) 
Heartbeat CPU 0 instructions: 40000003 cycles: 14657862 heartbeat IPC: 2.72936 cumulative IPC: 2.72891 (Simulation time: 0 hr 9 min 40 sec) 
Heartbeat CPU 0 instructions: 50000000 cycles: 18324061 heartbeat IPC: 2.72762 cumulative IPC: 2.72865 (Simulation time: 0 hr 12 min 20 sec) 

Warmup complete CPU 0 instructions: 50000004 cycles: 18324062 (Simulation time: 0 hr 12 min 20 sec) 

Heartbeat CPU 0 instructions: 60000000 cycles: 29415392 heartbeat IPC: 0.901605 cumulative IPC: 0.901605 (Simulation time: 0 hr 15 min 5 sec) 
Heartbeat CPU 0 instructions: 70000001 cycles: 40534674 heartbeat IPC: 0.899339 cumulative IPC: 0.90047 (Simulation time: 0 hr 16 min 41 sec) 
Heartbeat CPU 0 instructions: 80000001 cycles: 51667976 heartbeat IPC: 0.898206 cumulative IPC: 0.899714 (Simulation time: 0 hr 18 min 8 sec) 
Heartbeat CPU 0 instructions: 90000002 cycles: 62784657 heartbeat IPC: 0.899549 cumulative IPC: 0.899673 (Simulation time: 0 hr 19 min 25 sec) 
Heartbeat CPU 0 instructions: 100000000 cycles: 73884391 heartbeat IPC: 0.900922 cumulative IPC: 0.899923 (Simulation time: 0 hr 20 min 33 sec) 
Finished CPU 0 instructions: 50000000 cycles: 55560330 cumulative IPC: 0.899923 (Simulation time: 0 hr 20 min 33 sec) 

ChampSim completed all CPUs

Region of Interest Statistics

CPU 0 cumulative IPC: 0.899923 instructions: 50000000 cycles: 55560330
ITLB TOTAL     ACCESS:    6970220  HIT:    6970220  MISS:          0  HIT %:        100  MISS %:          0   MPKI: 0
ITLB LOAD TRANSLATION ACCESS:    6970220  HIT:    6970220  MISS:          0  HIT %:        100  MISS %:          0   MPKI: 0
ITLB PREFETCH  REQUESTED:          0  ISSUED:          0  USEFUL:          0  USELESS:          0
ITLB USEFUL LOAD PREFETCHES:          0 PREFETCH ISSUED TO LOWER LEVEL:          0  ACCURACY: -nan
ITLB TIMELY PREFETCHES:          0 LATE PREFETCHES: 0 DROPPED PREFETCHES: 0
ITLB PREFETCHES SAME FILL-ORIGIN LEVEL: 0 DIFFERENT FILL-ORIGIN LEVEL: 0
ITLB AVERAGE MISS LATENCY: -nan cycles
ITLB RQ	ACCESS:    8541654	FORWARD:          0	MERGED:    1571434	TO_CACHE:    6970220

DTLB TOTAL     ACCESS:   15024630  HIT:   13131966  MISS:    1892664  HIT %:    87.4029  MISS %:    12.5971   MPKI: 37.8533
DTLB LOAD TRANSLATION ACCESS:   15024630  HIT:   13131966  MISS:    1892664  HIT %:    87.4029  MISS %:    12.5971   MPKI: 37.8533
DTLB PREFETCH  REQUESTED:          0  ISSUED:          0  USEFUL:          0  USELESS:          0
DTLB USEFUL LOAD PREFETCHES:          0 PREFETCH ISSUED TO LOWER LEVEL:          0  ACCURACY: -nan
DTLB TIMELY PREFETCHES:          0 LATE PREFETCHES: 0 DROPPED PREFETCHES: 0
DTLB PREFETCHES SAME FILL-ORIGIN LEVEL: 0 DIFFERENT FILL-ORIGIN LEVEL: 0
DTLB AVERAGE MISS LATENCY: 10.3774 cycles
DTLB RQ	ACCESS:   19711510	FORWARD:          0	MERGED:    4492129	TO_CACHE:   15219381

STLB TOTAL     ACCESS:    8752782  HIT:    8750754  MISS:       2028  HIT %:    99.9768  MISS %:  0.0231698   MPKI: 0.04056
STLB LOAD TRANSLATION ACCESS:    1892664  HIT:    1890636  MISS:       2028  HIT %:    99.8928  MISS %:   0.107151   MPKI: 0.04056
STLB TRANSLATION FROM L1D PREFETCHER ACCESS:    6860118  HIT:    6860118  MISS:          0  HIT %:        100  MISS %:          0   MPKI: 0
STLB PREFETCH  REQUESTED:          0  ISSUED:          0  USEFUL:          0  USELESS:          0
STLB USEFUL LOAD PREFETCHES:          0 PREFETCH ISSUED TO LOWER LEVEL:          0  ACCURACY: -nan
STLB TIMELY PREFETCHES:          0 LATE PREFETCHES: 0 DROPPED PREFETCHES: 0
STLB PREFETCHES SAME FILL-ORIGIN LEVEL: 0 DIFFERENT FILL-ORIGIN LEVEL: 0
STLB AVERAGE MISS LATENCY: 791.139 cycles
STLB RQ	ACCESS:   12824975	FORWARD:          0	MERGED:    4072193	TO_CACHE:    8752782

STLB Hit, L1D data hit: 0
STLB Hit, L2C data hit: 0
STLB Hit, LLC data hit: 0
STLB Hit, LLC data miss: 0
STLB STLB hints to L2: 0
L1D TOTAL     ACCESS:   30334675  HIT:   25858731  MISS:    4475944  HIT %:    85.2448  MISS %:    14.7552   MPKI: 89.5189
L1D LOAD      ACCESS:   15654771  HIT:   12489674  MISS:    3165097  HIT %:    79.7819  MISS %:    20.2181   MPKI: 63.3019
L1D RFO       ACCESS:    3956348  HIT:    3658003  MISS:     298345  HIT %:    92.4591  MISS %:    7.54092   MPKI: 5.9669
L1D PREFETCH  ACCESS:   10723556  HIT:    9711054  MISS:    1012502  HIT %:    90.5582  MISS %:    9.44185   MPKI: 20.25
AGUS PREFETCH L1 MISS: 0
L1D PREFETCH  REQUESTED:   22491182  ISSUED:   22491182  USEFUL:     426612  USELESS:     585926
L1D USEFUL LOAD PREFETCHES:     426612 PREFETCH ISSUED TO LOWER LEVEL:    1127455  ACCURACY: 37.8385
L1D TIMELY PREFETCHES:     426612 LATE PREFETCHES: 66219 DROPPED PREFETCHES: 0
L1D PREFETCHES SAME FILL-ORIGIN LEVEL: 1127455 DIFFERENT FILL-ORIGIN LEVEL: 0
L1D AVERAGE MISS LATENCY: 681513 cycles
L1D RQ	ACCESS:   19349668	FORWARD:          0	MERGED:    3601423	TO_CACHE:   15734650
L1D WQ	ACCESS:    4003973	FORWARD:      18009	MERGED:      27113	TO_CACHE:    3976860
L1D PQ	ACCESS:   11558871	FORWARD:          0	MERGED:     622146	TO_CACHE:   10932311

L1D UNIQUE REGIONS ACCESSED: 0
L1D REGIONS CONFLICTS: 0
L1D Cross Page Prefetch Requests: 0
L1D Same Page Prefetch Requests: 22150163
L1D ROI Sum of L1D PQ occupancy: 141808909
L1D PREFETCHES PUSHED FROM L2C: 0
L1I TOTAL     ACCESS:    7805183  HIT:    6359083  MISS:    1446100  HIT %:    81.4726  MISS %:    18.5274   MPKI: 28.922
L1I LOAD      ACCESS:    7805183  HIT:    6359083  MISS:    1446100  HIT %:    81.4726  MISS %:    18.5274   MPKI: 28.922
L1I PREFETCH  REQUESTED:          0  ISSUED:          0  USEFUL:          0  USELESS:          0
L1I USEFUL LOAD PREFETCHES:          0 PREFETCH ISSUED TO LOWER LEVEL:          0  ACCURACY: -nan
L1I TIMELY PREFETCHES:          0 LATE PREFETCHES: 0 DROPPED PREFETCHES: 0
L1I PREFETCHES SAME FILL-ORIGIN LEVEL: 0 DIFFERENT FILL-ORIGIN LEVEL: 0
L1I AVERAGE MISS LATENCY: 14.0553 cycles
L1I RQ	ACCESS:   11858249	FORWARD:          0	MERGED:    3316595	TO_CACHE:    8541654

BTB TOTAL     ACCESS:     280232  HIT:     262131  MISS:      18101  HIT %:    93.5407  MISS %:    6.45929   MPKI: 0.36202
BTB BRANCH_DIRECT_JUMP	ACCESS:      54228  HIT:      54223  MISS:          5
BTB BRANCH_INDIRECT	ACCESS:       9038  HIT:       9037  MISS:          1
BTB BRANCH_CONDITIONAL	ACCESS:     108510  HIT:     108499  MISS:         11
BTB BRANCH_DIRECT_CALL	ACCESS:      54228  HIT:      54223  MISS:          5
BTB BRANCH_INDIRECT_CALL	ACCESS:          0  HIT:          0  MISS:          0
BTB BRANCH_RETURN	ACCESS:      54228  HIT:      36149  MISS:      18079
BTB BRANCH_OTHER ACCESS:           0  HIT:          0  MISS:          0

L2C TOTAL     ACCESS:    8174649  HIT:    7832927  MISS:     341722  HIT %:    95.8197  MISS %:    4.18027   MPKI: 6.83444
L2C LOAD      ACCESS:    4544466  HIT:    4363010  MISS:     181456  HIT %:    96.0071  MISS %:     3.9929   MPKI: 3.62912
L2C DATA LOAD MPKI: 3.62912
L2C INSTRUCTION LOAD MPKI: 0
L2C RFO       ACCESS:     298038  HIT:     268787  MISS:      29251  HIT %:    90.1855  MISS %:    9.81452   MPKI: 0.58502
L2C PREFETCH  ACCESS:    2990056  HIT:    2862101  MISS:     127955  HIT %:    95.7206  MISS %:    4.27935   MPKI: 2.5591
AGUS PREFETCH L1 MISS: 0
L2C DATA PREFETCH MPKI: 2.5591
L2C INSTRUCTION PREFETCH MPKI: 0
L2C WRITEBACK ACCESS:     339026  HIT:     338947  MISS:         79  HIT %:    99.9767  MISS %:   0.023302   MPKI: 0.00158
L2C LOAD TRANSLATION ACCESS:       3063  HIT:         82  MISS:       2981  HIT %:    2.67711  MISS %:    97.3229   MPKI: 0.05962
L2C PREFETCH  REQUESTED:    2600774  ISSUED:    2559046  USEFUL:      86791  USELESS:      41151
L2C USEFUL LOAD PREFETCHES:      86791 PREFETCH ISSUED TO LOWER LEVEL:     467130  ACCURACY: 18.5796
L2C TIMELY PREFETCHES:      86791 LATE PREFETCHES: 3 DROPPED PREFETCHES: 0
L2C PREFETCHES SAME FILL-ORIGIN LEVEL: 11266 DIFFERENT FILL-ORIGIN LEVEL: 339172
L2C AVERAGE MISS LATENCY: 109.859 cycles
L2C RQ	ACCESS:    4846372	FORWARD:          0	MERGED:          0	TO_CACHE:    4845567
L2C WQ	ACCESS:     339026	FORWARD:       1106	MERGED:          0	TO_CACHE:     339026
L2C PQ	ACCESS:    3637781	FORWARD:          0	MERGED:     286110	TO_CACHE:    3351370

L2C Instructions Evicting Data 0
L2C Translations Evicting Data 2953
L2C Data Evicting Data 335685
L2C Instructions Evicting Instructions 0
L2C Translations Evicting Instructions 0
L2C Data Evicting Instructions 0
L2C Instructions Evicting Translations 0
L2C Translations Evicting Translations 28
L2C Data Evicting Translations 2977
L2C Dense regions hint from L2: 0
PSCL5 TOTAL     ACCESS:       2028  HIT:       2028  MISS:          0  HIT %:        100  MISS %:          0   MPKI: 0
PSCL5 LOAD TRANSLATION ACCESS:       2028  HIT:       2028  MISS:          0  HIT %:        100  MISS %:          0   MPKI: 0
PSCL5 PREFETCH  REQUESTED:          0  ISSUED:          0  USEFUL:          0  USELESS:          0
PSCL5 USEFUL LOAD PREFETCHES:          0 PREFETCH ISSUED TO LOWER LEVEL:          0  ACCURACY: -nan
PSCL5 TIMELY PREFETCHES:          0 LATE PREFETCHES: 0 DROPPED PREFETCHES: 0
PSCL5 PREFETCHES SAME FILL-ORIGIN LEVEL: 0 DIFFERENT FILL-ORIGIN LEVEL: 0

PSCL4 TOTAL     ACCESS:       2028  HIT:       2028  MISS:          0  HIT %:        100  MISS %:          0   MPKI: 0
PSCL4 LOAD TRANSLATION ACCESS:       2028  HIT:       2028  MISS:          0  HIT %:        100  MISS %:          0   MPKI: 0
PSCL4 PREFETCH  REQUESTED:          0  ISSUED:          0  USEFUL:          0  USELESS:          0
PSCL4 USEFUL LOAD PREFETCHES:          0 PREFETCH ISSUED TO LOWER LEVEL:          0  ACCURACY: -nan
PSCL4 TIMELY PREFETCHES:          0 LATE PREFETCHES: 0 DROPPED PREFETCHES: 0
PSCL4 PREFETCHES SAME FILL-ORIGIN LEVEL: 0 DIFFERENT FILL-ORIGIN LEVEL: 0

PSCL3 TOTAL     ACCESS:       2028  HIT:       2028  MISS:          0  HIT %:        100  MISS %:          0   MPKI: 0
PSCL3 LOAD TRANSLATION ACCESS:       2028  HIT:       2028  MISS:          0  HIT %:        100  MISS %:          0   MPKI: 0
PSCL3 PREFETCH  REQUESTED:          0  ISSUED:          0  USEFUL:          0  USELESS:          0
PSCL3 USEFUL LOAD PREFETCHES:          0 PREFETCH ISSUED TO LOWER LEVEL:          0  ACCURACY: -nan
PSCL3 TIMELY PREFETCHES:          0 LATE PREFETCHES: 0 DROPPED PREFETCHES: 0
PSCL3 PREFETCHES SAME FILL-ORIGIN LEVEL: 0 DIFFERENT FILL-ORIGIN LEVEL: 0

PSCL2 TOTAL     ACCESS:       2028  HIT:        989  MISS:       1039  HIT %:    48.7673  MISS %:    51.2327   MPKI: 0.02078
PSCL2 LOAD TRANSLATION ACCESS:       2028  HIT:        989  MISS:       1039  HIT %:    48.7673  MISS %:    51.2327   MPKI: 0.02078
PSCL2 PREFETCH  REQUESTED:          0  ISSUED:          0  USEFUL:          0  USELESS:          0
PSCL2 USEFUL LOAD PREFETCHES:          0 PREFETCH ISSUED TO LOWER LEVEL:          0  ACCURACY: -nan
PSCL2 TIMELY PREFETCHES:          0 LATE PREFETCHES: 0 DROPPED PREFETCHES: 0
PSCL2 PREFETCHES SAME FILL-ORIGIN LEVEL: 0 DIFFERENT FILL-ORIGIN LEVEL: 0

LLC TOTAL     ACCESS:     705052  HIT:     553655  MISS:     151397  HIT %:    78.5268  MISS %:    21.4732   MPKI: 3.02794
LLC LOAD      ACCESS:     181453  HIT:     164750  MISS:      16703  HIT %:    90.7949  MISS %:    9.20514   MPKI: 0.33406
LLC RFO       ACCESS:      29251  HIT:          1  MISS:      29250  HIT %: 0.00341869  MISS %:    99.9966   MPKI: 0.585
LLC PREFETCH  ACCESS:     462106  HIT:     373982  MISS:      88124  HIT %:    80.9299  MISS %:    19.0701   MPKI: 1.76248
AGUS PREFETCH L1 MISS: 0
LLC WRITEBACK ACCESS:      29261  HIT:      12737  MISS:      16524  HIT %:    43.5289  MISS %:    56.4711   MPKI: 0.33048
LLC LOAD TRANSLATION ACCESS:       2981  HIT:       2185  MISS:        796  HIT %:    73.2976  MISS %:    26.7024   MPKI: 0.01592
LLC PREFETCH  REQUESTED:          0  ISSUED:          0  USEFUL:      72182  USELESS:      18233
LLC USEFUL LOAD PREFETCHES:      72182 PREFETCH ISSUED TO LOWER LEVEL:      88553  ACCURACY: 81.5128
LLC TIMELY PREFETCHES:      72182 LATE PREFETCHES: 429 DROPPED PREFETCHES: 0
LLC PREFETCHES SAME FILL-ORIGIN LEVEL: 64737 DIFFERENT FILL-ORIGIN LEVEL: 0
LLC AVERAGE MISS LATENCY: 267.44 cycles
LLC RQ	ACCESS:     213685	FORWARD:          0	MERGED:          0	TO_CACHE:     213685
LLC WQ	ACCESS:      29261	FORWARD:          0	MERGED:          0	TO_CACHE:      29261
LLC PQ	ACCESS:     467130	FORWARD:          0	MERGED:       4228	TO_CACHE:     462902

LLC Dense regions hint to LLC: 0

RAW hits: 110063
Loads Generated: 19459731
Loads sent to L1D: 19349668
Stores Generated: 4004020
Stores sent to L1D: 4004023
Major fault: 0 Minor fault: 4562
Allocated PAGES: 4562
CPU 0 L1D berti prefetcher final stats
3-> Hits: 7257, Late: 10817, Early: 0, Misses: 0
6-> Hits: 1340, Late: 16734, Early: 0, Misses: 0
7-> Hits: 822, Late: 0, Early: 0, Misses: 0
8-> Hits: 27462, Late: 2417, Early: 0, Misses: 0
e-> Hits: 16747, Late: 0, Early: 0, Misses: 0
12-> Hits: 5397, Late: 0, Early: 0, Misses: 0
17-> Hits: 8387, Late: 0, Early: 0, Misses: 0
18-> Hits: 22230, Late: 0, Early: 0, Misses: 0
19-> Hits: 18074, Late: 0, Early: 0, Misses: 0
1a-> Hits: 4959, Late: 13115, Early: 0, Misses: 0
1d-> Hits: 10, Late: 0, Early: 0, Misses: 0
1e-> Hits: 7719, Late: 3510, Early: 0, Misses: 0
20-> Hits: 22484, Late: 0, Early: 0, Misses: 0
21-> Hits: 26853, Late: 0, Early: 0, Misses: 0
22-> Hits: 18074, Late: 0, Early: 0, Misses: 0
25-> Hits: 6346, Late: 2338, Early: 0, Misses: 0
26-> Hits: 2293, Late: 2130, Early: 0, Misses: 3080
28-> Hits: 18074, Late: 0, Early: 0, Misses: 0
2a-> Hits: 15025, Late: 0, Early: 0, Misses: 0
2b-> Hits: 11357, Late: 0, Early: 0, Misses: 0
30-> Hits: 1467, Late: 0, Early: 0, Misses: 0
31-> Hits: 514, Late: 0, Early: 0, Misses: 0
33-> Hits: 12417, Late: 0, Early: 0, Misses: 0
34-> Hits: 17766, Late: 0, Early: 0, Misses: 0
37-> Hits: 13188, Late: 2814, Early: 0, Misses: 0
38-> Hits: 1396, Late: 0, Early: 0, Misses: 0
3a-> Hits: 12497, Late: 1, Early: 0, Misses: 5576
3c-> Hits: 12781, Late: 2252, Early: 0, Misses: 0
3e-> Hits: 5176, Late: 0, Early: 0, Misses: 0
40-> Hits: 30972, Late: 0, Early: 0, Misses: 0
42-> Hits: 11412, Late: 2102, Early: 0, Misses: 0
43-> Hits: 1, Late: 1, Early: 0, Misses: 0
46-> Hits: 9723, Late: 1168, Early: 0, Misses: 0
47-> Hits: 17145, Late: 0, Early: 0, Misses: 0
48-> Hits: 5718, Late: 0, Early: 0, Misses: 0
49-> Hits: 18074, Late: 0, Early: 0, Misses: 0
4b-> Hits: 1466, Late: 0, Early: 0, Misses: 0
4c-> Hits: 477, Late: 17598, Early: 0, Misses: 0
4d-> Hits: 18074, Late: 0, Early: 0, Misses: 0
50-> Hits: 15962, Late: 0, Early: 0, Misses: 0
51-> Hits: 32179, Late: 0, Early: 0, Misses: 314
53-> Hits: 3164, Late: 14910, Early: 0, Misses: 0
58-> Hits: 36037, Late: 0, Early: 0, Misses: 0
59-> Hits: 8304, Late: 27845, Early: 0, Misses: 0
5a-> Hits: 18074, Late: 0, Early: 0, Misses: 0
5c-> Hits: 17976, Late: 0, Early: 0, Misses: 0
5d-> Hits: 5233, Late: 12841, Early: 0, Misses: 0
60-> Hits: 4400, Late: 1380, Early: 0, Misses: 0
62-> Hits: 34158, Late: 0, Early: 0, Misses: 0
66-> Hits: 1378, Late: 0, Early: 0, Misses: 3
67-> Hits: 25838, Late: 2168, Early: 0, Misses: 0
68-> Hits: 17145, Late: 0, Early: 0, Misses: 0
69-> Hits: 18074, Late: 0, Early: 0, Misses: 0
6b-> Hits: 7214, Late: 10860, Early: 0, Misses: 0
6c-> Hits: 13012, Late: 763, Early: 0, Misses: 0
6e-> Hits: 0, Late: 18071, Early: 0, Misses: 0
6f-> Hits: 18074, Late: 0, Early: 0, Misses: 0
70-> Hits: 11105, Late: 0, Early: 0, Misses: 0
72-> Hits: 36149, Late: 0, Early: 0, Misses: 0
73-> Hits: 18074, Late: 0, Early: 0, Misses: 0
75-> Hits: 9328, Late: 4098, Early: 0, Misses: 0
77-> Hits: 1253, Late: 16822, Early: 0, Misses: 0
78-> Hits: 36148, Late: 0, Early: 0, Misses: 0
7b-> Hits: 10824, Late: 0, Early: 0, Misses: 14
7c-> Hits: 1804, Late: 0, Early: 0, Misses: 0
7e-> Hits: 5578, Late: 0, Early: 0, Misses: 0
81-> Hits: 6767, Late: 11308, Early: 0, Misses: 0
82-> Hits: 33529, Late: 0, Early: 0, Misses: 0
83-> Hits: 21847, Late: 13024, Early: 0, Misses: 0
84-> Hits: 18074, Late: 0, Early: 0, Misses: 0
86-> Hits: 592, Late: 17482, Early: 0, Misses: 0
87-> Hits: 10014, Late: 0, Early: 0, Misses: 0
8a-> Hits: 19863, Late: 2277, Early: 0, Misses: 0
8b-> Hits: 11971, Late: 2828, Early: 0, Misses: 0
8c-> Hits: 27, Late: 0, Early: 0, Misses: 0
90-> Hits: 18074, Late: 0, Early: 0, Misses: 0
91-> Hits: 13642, Late: 0, Early: 0, Misses: 86
94-> Hits: 17871, Late: 0, Early: 0, Misses: 0
96-> Hits: 29898, Late: 1939, Early: 0, Misses: 0
9b-> Hits: 35827, Late: 0, Early: 0, Misses: 321
9e-> Hits: 5986, Late: 0, Early: 0, Misses: 0
a0-> Hits: 18074, Late: 0, Early: 0, Misses: 0
a1-> Hits: 22311, Late: 0, Early: 0, Misses: 0
a5-> Hits: 18074, Late: 0, Early: 0, Misses: 0
a6-> Hits: 6155, Late: 29994, Early: 0, Misses: 0
a9-> Hits: 30577, Late: 0, Early: 0, Misses: 120
aa-> Hits: 14828, Late: 0, Early: 0, Misses: 0
ab-> Hits: 15869, Late: 4916, Early: 0, Misses: 0
ac-> Hits: 17323, Late: 0, Early: 0, Misses: 0
b1-> Hits: 9217, Late: 20791, Early: 0, Misses: 0
b2-> Hits: 18074, Late: 0, Early: 0, Misses: 0
b5-> Hits: 14554, Late: 0, Early: 0, Misses: 0
b6-> Hits: 19153, Late: 0, Early: 0, Misses: 0
b7-> Hits: 10264, Late: 4522, Early: 0, Misses: 0
b9-> Hits: 14846, Late: 1292, Early: 0, Misses: 0
bb-> Hits: 6270, Late: 11804, Early: 0, Misses: 0
bc-> Hits: 5064, Late: 0, Early: 0, Misses: 0
bf-> Hits: 12504, Late: 5570, Early: 0, Misses: 0
c0-> Hits: 11758, Late: 2890, Early: 0, Misses: 0
c1-> Hits: 9373, Late: 0, Early: 0, Misses: 0
c6-> Hits: 18074, Late: 0, Early: 0, Misses: 0
c9-> Hits: 22286, Late: 13853, Early: 0, Misses: 10
ca-> Hits: 3204, Late: 0, Early: 0, Misses: 0
cb-> Hits: 17222, Late: 0, Early: 0, Misses: 0
ce-> Hits: 13596, Late: 889, Early: 0, Misses: 0
cf-> Hits: 15304, Late: 13438, Early: 0, Misses: 0
d1-> Hits: 18074, Late: 0, Early: 0, Misses: 0
d3-> Hits: 11749, Late: 2184, Early: 0, Misses: 0
d4-> Hits: 25107, Late: 3043, Early: 0, Misses: 0
d5-> Hits: 10271, Late: 0, Early: 0, Misses: 0
d9-> Hits: 17745, Late: 0, Early: 0, Misses: 0
da-> Hits: 25416, Late: 0, Early: 0, Misses: 23
df-> Hits: 13298, Late: 0, Early: 0, Misses: 0
e1-> Hits: 22499, Late: 13650, Early: 0, Misses: 0
e2-> Hits: 29898, Late: 2290, Early: 0, Misses: 0
e6-> Hits: 18074, Late: 0, Early: 0, Misses: 0
e7-> Hits: 31467, Late: 12537, Early: 0, Misses: 0
ec-> Hits: 34143, Late: 5932, Early: 0, Misses: 0
f0-> Hits: 1241, Late: 5, Early: 0, Misses: 0
f4-> Hits: 31208, Late: 4940, Early: 0, Misses: 0
f5-> Hits: 11379, Late: 693, Early: 0, Misses: 0
f7-> Hits: 18074, Late: 0, Early: 0, Misses: 0
f8-> Hits: 12272, Late: 0, Early: 0, Misses: 0
fa-> Hits: 17789, Late: 260, Early: 0, Misses: 25
fc-> Hits: 10986, Late: 0, Early: 0, Misses: 0
fd-> Hits: 29, Late: 0, Early: 0, Misses: 0
fe-> Hits: 21479, Late: 2564, Early: 0, Misses: 0
ff-> Hits: 16948, Late: 0, Early: 0, Misses: 1126
102-> Hits: 12936, Late: 1508, Early: 0, Misses: 0
105-> Hits: 26236, Late: 0, Early: 0, Misses: 0
107-> Hits: 19094, Late: 1698, Early: 0, Misses: 0
109-> Hits: 18074, Late: 0, Early: 0, Misses: 0
10a-> Hits: 17947, Late: 127, Early: 0, Misses: 0
10c-> Hits: 26, Late: 17847, Early: 0, Misses: 0
10d-> Hits: 9266, Late: 968, Early: 0, Misses: 0
10e-> Hits: 24898, Late: 0, Early: 0, Misses: 0
112-> Hits: 19201, Late: 0, Early: 0, Misses: 0
114-> Hits: 18074, Late: 0, Early: 0, Misses: 0
117-> Hits: 17061, Late: 971, Early: 0, Misses: 0
11a-> Hits: 3687, Late: 32462, Early: 0, Misses: 0
11b-> Hits: 18074, Late: 0, Early: 0, Misses: 0
11e-> Hits: 16345, Late: 1729, Early: 0, Misses: 0
11f-> Hits: 15856, Late: 0, Early: 0, Misses: 0
120-> Hits: 312, Late: 0, Early: 0, Misses: 0
124-> Hits: 24558, Late: 11591, Early: 0, Misses: 0
128-> Hits: 36148, Late: 0, Early: 0, Misses: 0
129-> Hits: 17282, Late: 0, Early: 0, Misses: 0
12b-> Hits: 17946, Late: 0, Early: 0, Misses: 0
12d-> Hits: 1236, Late: 0, Early: 0, Misses: 0
12f-> Hits: 21, Late: 18053, Early: 0, Misses: 0
132-> Hits: 6997, Late: 11078, Early: 0, Misses: 0
134-> Hits: 6478, Late: 2889, Early: 0, Misses: 0
136-> Hits: 19788, Late: 0, Early: 0, Misses: 0
137-> Hits: 7460, Late: 0, Early: 0, Misses: 0
13a-> Hits: 27846, Late: 0, Early: 0, Misses: 12
13c-> Hits: 7176, Late: 2080, Early: 0, Misses: 0
13d-> Hits: 345, Late: 17729, Early: 0, Misses: 0
13e-> Hits: 7115, Late: 0, Early: 0, Misses: 0
141-> Hits: 18074, Late: 0, Early: 0, Misses: 0
142-> Hits: 59, Late: 17134, Early: 0, Misses: 0
143-> Hits: 36122, Late: 0, Early: 0, Misses: 0
145-> Hits: 4788, Late: 13286, Early: 0, Misses: 0
147-> Hits: 20316, Late: 1786, Early: 0, Misses: 0
14a-> Hits: 9840, Late: 3764, Early: 0, Misses: 0
14c-> Hits: 13434, Late: 4640, Early: 0, Misses: 0
14e-> Hits: 18074, Late: 0, Early: 0, Misses: 0
150-> Hits: 470, Late: 2266, Early: 0, Misses: 0
152-> Hits: 18074, Late: 0, Early: 0, Misses: 0
156-> Hits: 2569, Late: 0, Early: 0, Misses: 0
157-> Hits: 14651, Late: 2210, Early: 0, Misses: 0
15a-> Hits: 18184, Late: 0, Early: 0, Misses: 0
15d-> Hits: 8317, Late: 0, Early: 0, Misses: 0
15f-> Hits: 18074, Late: 0, Early: 0, Misses: 0
160-> Hits: 18074, Late: 0, Early: 0, Misses: 0
163-> Hits: 18074, Late: 0, Early: 0, Misses: 0
165-> Hits: 5094, Late: 12980, Early: 0, Misses: 0
167-> Hits: 18074, Late: 0, Early: 0, Misses: 0
168-> Hits: 406, Late: 0, Early: 0, Misses: 0
169-> Hits: 10500, Late: 0, Early: 0, Misses: 7
16a-> Hits: 11041, Late: 2356, Early: 0, Misses: 0
16b-> Hits: 18074, Late: 0, Early: 0, Misses: 0
170-> Hits: 18074, Late: 0, Early: 0, Misses: 0
172-> Hits: 17285, Late: 0, Early: 0, Misses: 789
173-> Hits: 7183, Late: 2354, Early: 0, Misses: 0
175-> Hits: 24062, Late: 0, Early: 0, Misses: 0
178-> Hits: 42251, Late: 1346, Early: 0, Misses: 0
17a-> Hits: 5175, Late: 12899, Early: 0, Misses: 0
17b-> Hits: 18074, Late: 0, Early: 0, Misses: 0
17d-> Hits: 18074, Late: 0, Early: 0, Misses: 0
17e-> Hits: 380, Late: 0, Early: 0, Misses: 0
17f-> Hits: 24879, Late: 2991, Early: 0, Misses: 0
180-> Hits: 17414, Late: 0, Early: 0, Misses: 0
183-> Hits: 17662, Late: 0, Early: 0, Misses: 0
185-> Hits: 17481, Late: 0, Early: 0, Misses: 593
186-> Hits: 35875, Late: 0, Early: 0, Misses: 0
187-> Hits: 69, Late: 18005, Early: 0, Misses: 0
189-> Hits: 3179, Late: 0, Early: 0, Misses: 0
18d-> Hits: 36148, Late: 0, Early: 0, Misses: 0
18e-> Hits: 18781, Late: 13036, Early: 0, Misses: 0
18f-> Hits: 18074, Late: 0, Early: 0, Misses: 0
193-> Hits: 8918, Late: 2590, Early: 0, Misses: 0
194-> Hits: 12962, Late: 2224, Early: 0, Misses: 0
196-> Hits: 18212, Late: 0, Early: 0, Misses: 0
198-> Hits: 10431, Late: 0, Early: 0, Misses: 0
199-> Hits: 31653, Late: 4495, Early: 0, Misses: 0
19b-> Hits: 13234, Late: 2194, Early: 0, Misses: 0
19e-> Hits: 4859, Late: 13215, Early: 0, Misses: 0
19f-> Hits: 16734, Late: 0, Early: 0, Misses: 0
1a1-> Hits: 29166, Late: 0, Early: 0, Misses: 0
1a3-> Hits: 6868, Late: 3738, Early: 0, Misses: 0
1a5-> Hits: 17233, Late: 0, Early: 0, Misses: 0
1a7-> Hits: 548, Late: 0, Early: 0, Misses: 0
1a8-> Hits: 12593, Late: 5481, Early: 0, Misses: 0
1ab-> Hits: 178, Late: 0, Early: 0, Misses: 0
1b1-> Hits: 636, Late: 17420, Early: 0, Misses: 0
1b6-> Hits: 46786, Late: 84, Early: 0, Misses: 15
1b7-> Hits: 18074, Late: 0, Early: 0, Misses: 0
1b8-> Hits: 12872, Late: 272, Early: 0, Misses: 0
1b9-> Hits: 15797, Late: 0, Early: 0, Misses: 0
1bd-> Hits: 98, Late: 0, Early: 0, Misses: 0
1be-> Hits: 33044, Late: 0, Early: 0, Misses: 0
1c3-> Hits: 1, Late: 18023, Early: 0, Misses: 0
1c4-> Hits: 18074, Late: 0, Early: 0, Misses: 0
1c6-> Hits: 13742, Late: 1997, Early: 0, Misses: 0
1c8-> Hits: 10994, Late: 2263, Early: 0, Misses: 0
1ca-> Hits: 27129, Late: 99, Early: 0, Misses: 0
1cb-> Hits: 14147, Late: 2104, Early: 0, Misses: 0
1cc-> Hits: 17707, Late: 0, Early: 0, Misses: 0
1ce-> Hits: 18074, Late: 0, Early: 0, Misses: 0
1d0-> Hits: 111, Late: 17863, Early: 0, Misses: 0
1d3-> Hits: 15368, Late: 0, Early: 0, Misses: 0
1d7-> Hits: 303, Late: 0, Early: 0, Misses: 0
1da-> Hits: 16335, Late: 1646, Early: 0, Misses: 0
1db-> Hits: 18074, Late: 0, Early: 0, Misses: 0
1de-> Hits: 15937, Late: 0, Early: 0, Misses: 0
1e0-> Hits: 583, Late: 17491, Early: 0, Misses: 0
1e1-> Hits: 15842, Late: 2232, Early: 0, Misses: 0
1e4-> Hits: 14069, Late: 2283, Early: 0, Misses: 0
1e5-> Hits: 18074, Late: 0, Early: 0, Misses: 0
1e7-> Hits: 12918, Late: 0, Early: 0, Misses: 0
1e8-> Hits: 0, Late: 18074, Early: 0, Misses: 0
1ea-> Hits: 11475, Late: 0, Early: 0, Misses: 1
1ee-> Hits: 16, Late: 18058, Early: 0, Misses: 0
1f0-> Hits: 12619, Late: 5455, Early: 0, Misses: 0
1f1-> Hits: 18555, Late: 4847, Early: 0, Misses: 0
1f2-> Hits: 7079, Late: 3973, Early: 0, Misses: 0
1f6-> Hits: 15301, Late: 0, Early: 0, Misses: 0
1f7-> Hits: 13797, Late: 17727, Early: 0, Misses: 2
1fc-> Hits: 12010, Late: 2201, Early: 0, Misses: 0
1fe-> Hits: 13334, Late: 0, Early: 0, Misses: 0
1ff-> Hits: 134, Late: 0, Early: 0, Misses: 0
201-> Hits: 34639, Late: 5696, Early: 0, Misses: 0
203-> Hits: 18074, Late: 0, Early: 0, Misses: 0
204-> Hits: 43, Late: 18031, Early: 0, Misses: 0
205-> Hits: 18074, Late: 0, Early: 0, Misses: 0
207-> Hits: 25181, Late: 13, Early: 0, Misses: 3
209-> Hits: 4887, Late: 5564, Early: 0, Misses: 0
20a-> Hits: 18074, Late: 0, Early: 0, Misses: 0
20b-> Hits: 18074, Late: 0, Early: 0, Misses: 0
20f-> Hits: 9189, Late: 2448, Early: 0, Misses: 0
213-> Hits: 18082, Late: 0, Early: 0, Misses: 0
214-> Hits: 1661, Late: 363, Early: 0, Misses: 0
215-> Hits: 23638, Late: 2103, Early: 0, Misses: 0
21a-> Hits: 764, Late: 17310, Early: 0, Misses: 0
21c-> Hits: 14328, Late: 0, Early: 0, Misses: 0
21d-> Hits: 20259, Late: 2403, Early: 0, Misses: 2
21f-> Hits: 19112, Late: 2, Early: 0, Misses: 0
221-> Hits: 18074, Late: 0, Early: 0, Misses: 0
224-> Hits: 11587, Late: 0, Early: 0, Misses: 0
227-> Hits: 3393, Late: 14681, Early: 0, Misses: 0
229-> Hits: 9757, Late: 2068, Early: 0, Misses: 0
22a-> Hits: 7282, Late: 0, Early: 0, Misses: 0
22b-> Hits: 2164, Late: 17205, Early: 0, Misses: 0
22e-> Hits: 18704, Late: 0, Early: 0, Misses: 0
22f-> Hits: 10896, Late: 0, Early: 0, Misses: 0
230-> Hits: 17409, Late: 0, Early: 0, Misses: 717
234-> Hits: 18074, Late: 0, Early: 0, Misses: 0
235-> Hits: 230, Late: 4384, Early: 0, Misses: 0
239-> Hits: 908, Late: 0, Early: 0, Misses: 0
23a-> Hits: 18074, Late: 0, Early: 0, Misses: 0
23e-> Hits: 18059, Late: 62, Early: 0, Misses: 0
240-> Hits: 6036, Late: 0, Early: 0, Misses: 0
241-> Hits: 12931, Late: 0, Early: 0, Misses: 1
242-> Hits: 6876, Late: 2287, Early: 0, Misses: 0
243-> Hits: 1212, Late: 16910, Early: 0, Misses: 0
245-> Hits: 18074, Late: 0, Early: 0, Misses: 0
247-> Hits: 30486, Late: 991, Early: 0, Misses: 0
248-> Hits: 26024, Late: 5, Early: 0, Misses: 0
24a-> Hits: 13992, Late: 0, Early: 0, Misses: 0
24d-> Hits: 4927, Late: 13147, Early: 0, Misses: 0
24f-> Hits: 27661, Late: 53, Early: 0, Misses: 2
251-> Hits: 18074, Late: 0, Early: 0, Misses: 0
253-> Hits: 16029, Late: 0, Early: 0, Misses: 0
254-> Hits: 18074, Late: 0, Early: 0, Misses: 0
256-> Hits: 1652, Late: 16422, Early: 0, Misses: 0
257-> Hits: 18062, Late: 0, Early: 0, Misses: 12
258-> Hits: 2992, Late: 0, Early: 0, Misses: 0
25d-> Hits: 33884, Late: 0, Early: 0, Misses: 0
25f-> Hits: 13115, Late: 2564, Early: 0, Misses: 2
260-> Hits: 13837, Late: 0, Early: 0, Misses: 0
262-> Hits: 12033, Late: 1625, Early: 0, Misses: 0
264-> Hits: 682, Late: 17392, Early: 0, Misses: 0
265-> Hits: 1534, Late: 1, Early: 0, Misses: 0
266-> Hits: 18074, Late: 0, Early: 0, Misses: 0
267-> Hits: 11853, Late: 2195, Early: 0, Misses: 0
269-> Hits: 14943, Late: 2279, Early: 0, Misses: 0
26d-> Hits: 18056, Late: 0, Early: 0, Misses: 18
26e-> Hits: 16505, Late: 4512, Early: 0, Misses: 0
26f-> Hits: 13940, Late: 0, Early: 0, Misses: 5
270-> Hits: 17874, Late: 0, Early: 0, Misses: 0
273-> Hits: 18074, Late: 0, Early: 0, Misses: 0
274-> Hits: 18074, Late: 0, Early: 0, Misses: 0
277-> Hits: 29427, Late: 17035, Early: 0, Misses: 0
27b-> Hits: 18057, Late: 0, Early: 0, Misses: 17
27d-> Hits: 11276, Late: 1, Early: 0, Misses: 0
282-> Hits: 18074, Late: 0, Early: 0, Misses: 0
283-> Hits: 36117, Late: 0, Early: 0, Misses: 31
284-> Hits: 2475, Late: 15599, Early: 0, Misses: 0
285-> Hits: 10718, Late: 1432, Early: 0, Misses: 0
289-> Hits: 18074, Late: 0, Early: 0, Misses: 0
28b-> Hits: 1988, Late: 0, Early: 0, Misses: 0
28f-> Hits: 17184, Late: 0, Early: 0, Misses: 0
290-> Hits: 30203, Late: 3782, Early: 0, Misses: 0
291-> Hits: 18004, Late: 26, Early: 0, Misses: 15
292-> Hits: 14834, Late: 0, Early: 0, Misses: 0
296-> Hits: 14415, Late: 1550, Early: 0, Misses: 0
298-> Hits: 6060, Late: 12014, Early: 0, Misses: 0
29a-> Hits: 13901, Late: 0, Early: 0, Misses: 0
29c-> Hits: 13925, Late: 2280, Early: 0, Misses: 0
29e-> Hits: 5767, Late: 2412, Early: 0, Misses: 0
29f-> Hits: 17691, Late: 0, Early: 0, Misses: 17
2a4-> Hits: 23, Late: 0, Early: 0, Misses: 0
2a5-> Hits: 26892, Late: 0, Early: 0, Misses: 0
2ab-> Hits: 16497, Late: 1364, Early: 0, Misses: 0
2ac-> Hits: 26699, Late: 2309, Early: 0, Misses: 0
2ad-> Hits: 5047, Late: 13163, Early: 0, Misses: 2
2b2-> Hits: 49134, Late: 2060, Early: 0, Misses: 0
2b3-> Hits: 28413, Late: 1, Early: 0, Misses: 0
2b8-> Hits: 9862, Late: 2305, Early: 0, Misses: 0
2b9-> Hits: 0, Late: 18074, Early: 0, Misses: 0
2ba-> Hits: 8537, Late: 1968, Early: 0, Misses: 0
2bd-> Hits: 3965, Late: 6, Early: 0, Misses: 0
2be-> Hits: 17984, Late: 0, Early: 0, Misses: 18
2bf-> Hits: 17512, Late: 0, Early: 0, Misses: 0
2c4-> Hits: 4224, Late: 19113, Early: 0, Misses: 0
2c5-> Hits: 38207, Late: 15896, Early: 0, Misses: 119
2c8-> Hits: 52, Late: 0, Early: 0, Misses: 0
2c9-> Hits: 3835, Late: 14239, Early: 0, Misses: 0
2ca-> Hits: 16340, Late: 0, Early: 0, Misses: 0
2cb-> Hits: 13729, Late: 0, Early: 0, Misses: 0
2cd-> Hits: 18005, Late: 0, Early: 0, Misses: 124
2cf-> Hits: 9858, Late: 2421, Early: 0, Misses: 0
2d0-> Hits: 5441, Late: 12633, Early: 0, Misses: 0
2d2-> Hits: 14063, Late: 2489, Early: 0, Misses: 0
2d6-> Hits: 418, Late: 0, Early: 0, Misses: 0
2d7-> Hits: 29648, Late: 1727, Early: 0, Misses: 0
2da-> Hits: 16936, Late: 0, Early: 0, Misses: 0
2db-> Hits: 7191, Late: 11042, Early: 0, Misses: 2
2dd-> Hits: 18074, Late: 0, Early: 0, Misses: 0
2e0-> Hits: 2377, Late: 2, Early: 0, Misses: 0
2e2-> Hits: 1211, Late: 16863, Early: 0, Misses: 0
2e3-> Hits: 18074, Late: 0, Early: 0, Misses: 0
2e5-> Hits: 4973, Late: 2154, Early: 0, Misses: 0
2e6-> Hits: 8221, Late: 18036, Early: 0, Misses: 0
2e7-> Hits: 17966, Late: 0, Early: 0, Misses: 0
2ea-> Hits: 9797, Late: 2, Early: 0, Misses: 0
2eb-> Hits: 4881, Late: 5653, Early: 0, Misses: 0
2ec-> Hits: 4455, Late: 13619, Early: 0, Misses: 0
2ee-> Hits: 16152, Late: 0, Early: 0, Misses: 0
2ef-> Hits: 18074, Late: 0, Early: 0, Misses: 0
2f0-> Hits: 36, Late: 0, Early: 0, Misses: 0
2f2-> Hits: 5340, Late: 12734, Early: 0, Misses: 0
2f3-> Hits: 17783, Late: 0, Early: 0, Misses: 0
2f5-> Hits: 18042, Late: 0, Early: 0, Misses: 0
2f6-> Hits: 1837, Late: 345, Early: 0, Misses: 0
2f7-> Hits: 10084, Late: 3001, Early: 0, Misses: 0
2fd-> Hits: 1575, Late: 0, Early: 0, Misses: 0
2fe-> Hits: 9855, Late: 0, Early: 0, Misses: 0
301-> Hits: 24075, Late: 2594, Early: 0, Misses: 0
303-> Hits: 6273, Late: 0, Early: 0, Misses: 0
305-> Hits: 5847, Late: 12227, Early: 0, Misses: 0
308-> Hits: 507, Late: 17567, Early: 0, Misses: 0
30a-> Hits: 31341, Late: 2123, Early: 0, Misses: 0
30d-> Hits: 11857, Late: 2368, Early: 0, Misses: 0
311-> Hits: 8332, Late: 0, Early: 0, Misses: 0
313-> Hits: 9659, Late: 0, Early: 0, Misses: 0
316-> Hits: 5071, Late: 13004, Early: 0, Misses: 0
317-> Hits: 32015, Late: 0, Early: 0, Misses: 0
318-> Hits: 18074, Late: 0, Early: 0, Misses: 0
31b-> Hits: 9776, Late: 19431, Early: 0, Misses: 0
320-> Hits: 17234, Late: 0, Early: 0, Misses: 0
321-> Hits: 1553, Late: 0, Early: 0, Misses: 0
324-> Hits: 17224, Late: 0, Early: 0, Misses: 0
325-> Hits: 18074, Late: 0, Early: 0, Misses: 0
326-> Hits: 6205, Late: 11869, Early: 0, Misses: 0
328-> Hits: 7208, Late: 1813, Early: 0, Misses: 0
32b-> Hits: 5454, Late: 3222, Early: 0, Misses: 0
331-> Hits: 729, Late: 0, Early: 0, Misses: 0
332-> Hits: 12262, Late: 1, Early: 0, Misses: 0
337-> Hits: 232, Late: 0, Early: 0, Misses: 0
339-> Hits: 4302, Late: 13772, Early: 0, Misses: 0
33a-> Hits: 21141, Late: 13703, Early: 0, Misses: 0
33d-> Hits: 17774, Late: 0, Early: 0, Misses: 0
33e-> Hits: 8271, Late: 2350, Early: 0, Misses: 0
33f-> Hits: 3563, Late: 2779, Early: 0, Misses: 0
343-> Hits: 12472, Late: 1, Early: 0, Misses: 5601
344-> Hits: 13683, Late: 1, Early: 0, Misses: 0
345-> Hits: 172, Late: 0, Early: 0, Misses: 0
348-> Hits: 3596, Late: 14478, Early: 0, Misses: 0
34c-> Hits: 14232, Late: 3842, Early: 0, Misses: 0
34d-> Hits: 15383, Late: 0, Early: 0, Misses: 0
34f-> Hits: 17978, Late: 0, Early: 0, Misses: 0
350-> Hits: 10, Late: 0, Early: 0, Misses: 0
351-> Hits: 9222, Late: 0, Early: 0, Misses: 0
355-> Hits: 18073, Late: 0, Early: 0, Misses: 1
356-> Hits: 39240, Late: 2617, Early: 0, Misses: 0
358-> Hits: 18074, Late: 0, Early: 0, Misses: 0
35d-> Hits: 18074, Late: 0, Early: 0, Misses: 0
35f-> Hits: 18074, Late: 0, Early: 0, Misses: 0
367-> Hits: 18074, Late: 0, Early: 0, Misses: 0
368-> Hits: 18006, Late: 0, Early: 0, Misses: 0
369-> Hits: 13705, Late: 2829, Early: 0, Misses: 0
36c-> Hits: 8, Late: 0, Early: 0, Misses: 0
36f-> Hits: 18074, Late: 0, Early: 0, Misses: 0
370-> Hits: 6234, Late: 0, Early: 0, Misses: 0
371-> Hits: 233, Late: 0, Early: 0, Misses: 0
374-> Hits: 18074, Late: 0, Early: 0, Misses: 0
377-> Hits: 8, Late: 0, Early: 0, Misses: 0
378-> Hits: 10040, Late: 1269, Early: 0, Misses: 0
37a-> Hits: 898, Late: 0, Early: 0, Misses: 0
37b-> Hits: 17800, Late: 0, Early: 0, Misses: 0
37d-> Hits: 1071, Late: 0, Early: 0, Misses: 0
37f-> Hits: 9, Late: 0, Early: 0, Misses: 0
380-> Hits: 18074, Late: 0, Early: 0, Misses: 0
385-> Hits: 17384, Late: 15418, Early: 0, Misses: 0
387-> Hits: 8233, Late: 3589, Early: 0, Misses: 0
388-> Hits: 0, Late: 18074, Early: 0, Misses: 0
389-> Hits: 32984, Late: 0, Early: 0, Misses: 0
38a-> Hits: 14003, Late: 0, Early: 0, Misses: 0
38d-> Hits: 10, Late: 0, Early: 0, Misses: 0
38e-> Hits: 754, Late: 17330, Early: 0, Misses: 0
38f-> Hits: 5101, Late: 12973, Early: 0, Misses: 0
390-> Hits: 10, Late: 0, Early: 0, Misses: 0
391-> Hits: 8051, Late: 0, Early: 0, Misses: 0
392-> Hits: 10, Late: 0, Early: 0, Misses: 0
393-> Hits: 18074, Late: 0, Early: 0, Misses: 0
394-> Hits: 18084, Late: 0, Early: 0, Misses: 0
396-> Hits: 36158, Late: 0, Early: 0, Misses: 0
397-> Hits: 10, Late: 0, Early: 0, Misses: 0
398-> Hits: 1018, Late: 0, Early: 0, Misses: 0
39d-> Hits: 7018, Late: 11056, Early: 0, Misses: 0
39f-> Hits: 18074, Late: 0, Early: 0, Misses: 0
3a2-> Hits: 9714, Late: 18054, Early: 0, Misses: 0
3a3-> Hits: 13395, Late: 2353, Early: 0, Misses: 0
3a5-> Hits: 17886, Late: 0, Early: 0, Misses: 0
3a6-> Hits: 1, Late: 0, Early: 0, Misses: 0
3a7-> Hits: 11035, Late: 19181, Early: 0, Misses: 0
3a9-> Hits: 16371, Late: 0, Early: 0, Misses: 0
3b0-> Hits: 1027, Late: 0, Early: 0, Misses: 0
3b1-> Hits: 19027, Late: 1968, Early: 0, Misses: 0
3b6-> Hits: 33987, Late: 0, Early: 0, Misses: 0
3b9-> Hits: 6470, Late: 12700, Early: 0, Misses: 0
3bb-> Hits: 769, Late: 17305, Early: 0, Misses: 0
3be-> Hits: 11126, Late: 2747, Early: 0, Misses: 0
3bf-> Hits: 30456, Late: 0, Early: 0, Misses: 0
3c0-> Hits: 21614, Late: 14369, Early: 0, Misses: 0
3c6-> Hits: 0, Late: 18074, Early: 0, Misses: 0
3c8-> Hits: 3994, Late: 14080, Early: 0, Misses: 0
3cc-> Hits: 5402, Late: 2515, Early: 0, Misses: 0
3d1-> Hits: 22795, Late: 0, Early: 0, Misses: 0
3d2-> Hits: 9589, Late: 0, Early: 0, Misses: 0
3d3-> Hits: 26132, Late: 0, Early: 0, Misses: 0
3d6-> Hits: 4587, Late: 2252, Early: 0, Misses: 0
3d8-> Hits: 15701, Late: 1820, Early: 0, Misses: 0
3d9-> Hits: 12022, Late: 12326, Early: 0, Misses: 0
3da-> Hits: 17956, Late: 0, Early: 0, Misses: 0
3db-> Hits: 30326, Late: 1054, Early: 0, Misses: 0
3dd-> Hits: 18074, Late: 0, Early: 0, Misses: 0
3df-> Hits: 7400, Late: 2415, Early: 0, Misses: 0
3e1-> Hits: 18074, Late: 0, Early: 0, Misses: 0
3e4-> Hits: 18074, Late: 0, Early: 0, Misses: 0
3e6-> Hits: 12772, Late: 16703, Early: 0, Misses: 0
3ea-> Hits: 8329, Late: 0, Early: 0, Misses: 0
3eb-> Hits: 3759, Late: 0, Early: 0, Misses: 0
3ec-> Hits: 20615, Late: 4055, Early: 0, Misses: 0
3ee-> Hits: 35556, Late: 0, Early: 0, Misses: 0
3ef-> Hits: 6016, Late: 12058, Early: 0, Misses: 0
3f0-> Hits: 5433, Late: 12641, Early: 0, Misses: 0
3f1-> Hits: 16730, Late: 1292, Early: 0, Misses: 0
3f4-> Hits: 11032, Late: 2750, Early: 0, Misses: 0
3f9-> Hits: 11223, Late: 0, Early: 0, Misses: 0
3fd-> Hits: 15056, Late: 0, Early: 0, Misses: 0
3fe-> Hits: 19491, Late: 0, Early: 0, Misses: 0
400-> Hits: 4306, Late: 13768, Early: 0, Misses: 0
403-> Hits: 6275, Late: 11799, Early: 0, Misses: 0
404-> Hits: 17393, Late: 0, Early: 0, Misses: 0
407-> Hits: 23621, Late: 0, Early: 0, Misses: 0
408-> Hits: 8586, Late: 3020, Early: 0, Misses: 0
40a-> Hits: 15806, Late: 0, Early: 0, Misses: 0
40c-> Hits: 14648, Late: 18799, Early: 0, Misses: 0
411-> Hits: 44521, Late: 4583, Early: 0, Misses: 0
413-> Hits: 14350, Late: 0, Early: 0, Misses: 0
417-> Hits: 7730, Late: 0, Early: 0, Misses: 0
418-> Hits: 36148, Late: 0, Early: 0, Misses: 0
41b-> Hits: 5278, Late: 12796, Early: 0, Misses: 0
41d-> Hits: 17193, Late: 0, Early: 0, Misses: 0
41f-> Hits: 1061, Late: 17013, Early: 0, Misses: 0
420-> Hits: 19637, Late: 5530, Early: 0, Misses: 0
421-> Hits: 18074, Late: 0, Early: 0, Misses: 0
423-> Hits: 0, Late: 1, Early: 0, Misses: 0
424-> Hits: 7264, Late: 0, Early: 0, Misses: 0
425-> Hits: 8761, Late: 0, Early: 0, Misses: 0
42a-> Hits: 0, Late: 1, Early: 0, Misses: 0
42c-> Hits: 7447, Late: 1887, Early: 0, Misses: 0
42e-> Hits: 26527, Late: 3681, Early: 0, Misses: 0
42f-> Hits: 27523, Late: 0, Early: 0, Misses: 0
432-> Hits: 18074, Late: 0, Early: 0, Misses: 0
433-> Hits: 18074, Late: 0, Early: 0, Misses: 0
435-> Hits: 9595, Late: 13722, Early: 0, Misses: 0
437-> Hits: 18074, Late: 0, Early: 0, Misses: 0
43a-> Hits: 11132, Late: 1383, Early: 0, Misses: 0
43b-> Hits: 11829, Late: 2591, Early: 0, Misses: 0
43c-> Hits: 16477, Late: 0, Early: 0, Misses: 0
43e-> Hits: 15905, Late: 0, Early: 0, Misses: 0
43f-> Hits: 18074, Late: 0, Early: 0, Misses: 0
440-> Hits: 18074, Late: 18047, Early: 0, Misses: 0
445-> Hits: 4020, Late: 14054, Early: 0, Misses: 0
446-> Hits: 18548, Late: 0, Early: 0, Misses: 0
447-> Hits: 14468, Late: 1413, Early: 0, Misses: 0
449-> Hits: 1764, Late: 0, Early: 0, Misses: 0
44b-> Hits: 9180, Late: 0, Early: 0, Misses: 0
44c-> Hits: 13929, Late: 2031, Early: 0, Misses: 0
44e-> Hits: 15, Late: 18049, Early: 0, Misses: 0
450-> Hits: 9600, Late: 2632, Early: 0, Misses: 0
452-> Hits: 18074, Late: 0, Early: 0, Misses: 0
453-> Hits: 16273, Late: 0, Early: 0, Misses: 0
456-> Hits: 8666, Late: 0, Early: 0, Misses: 0
457-> Hits: 10238, Late: 0, Early: 0, Misses: 0
45c-> Hits: 17608, Late: 369, Early: 0, Misses: 0
45e-> Hits: 14, Late: 17479, Early: 0, Misses: 581
460-> Hits: 15328, Late: 0, Early: 0, Misses: 0
462-> Hits: 12114, Late: 2847, Early: 0, Misses: 0
463-> Hits: 34212, Late: 1936, Early: 0, Misses: 0
469-> Hits: 11115, Late: 0, Early: 0, Misses: 0
46c-> Hits: 23, Late: 18051, Early: 0, Misses: 0
46e-> Hits: 18074, Late: 0, Early: 0, Misses: 0
471-> Hits: 8478, Late: 977, Early: 0, Misses: 0
476-> Hits: 1432, Late: 0, Early: 0, Misses: 0
477-> Hits: 15547, Late: 17688, Early: 0, Misses: 0
47a-> Hits: 23940, Late: 1864, Early: 0, Misses: 0
47e-> Hits: 3912, Late: 14162, Early: 0, Misses: 0
480-> Hits: 86, Late: 17988, Early: 0, Misses: 0
482-> Hits: 1309, Late: 4499, Early: 0, Misses: 52
483-> Hits: 31732, Late: 0, Early: 0, Misses: 0
485-> Hits: 3432, Late: 2322, Early: 0, Misses: 0
488-> Hits: 4986, Late: 13088, Early: 0, Misses: 0
48c-> Hits: 11495, Late: 0, Early: 0, Misses: 0
48f-> Hits: 11262, Late: 0, Early: 0, Misses: 0
491-> Hits: 3794, Late: 0, Early: 0, Misses: 0
493-> Hits: 18074, Late: 0, Early: 0, Misses: 0
496-> Hits: 7387, Late: 10687, Early: 0, Misses: 0
49b-> Hits: 9470, Late: 0, Early: 0, Misses: 0
49d-> Hits: 18074, Late: 0, Early: 0, Misses: 0
49e-> Hits: 6262, Late: 2595, Early: 0, Misses: 0
4a0-> Hits: 7733, Late: 1873, Early: 0, Misses: 0
4a5-> Hits: 32106, Late: 2171, Early: 0, Misses: 37
4a9-> Hits: 5691, Late: 0, Early: 0, Misses: 0
4aa-> Hits: 18074, Late: 0, Early: 0, Misses: 0
4ae-> Hits: 18074, Late: 0, Early: 0, Misses: 0
4af-> Hits: 15699, Late: 0, Early: 0, Misses: 0
4b1-> Hits: 23644, Late: 12504, Early: 0, Misses: 0
4b2-> Hits: 8314, Late: 0, Early: 0, Misses: 0
4b6-> Hits: 28932, Late: 6140, Early: 0, Misses: 15269
4b8-> Hits: 18074, Late: 0, Early: 0, Misses: 0
4be-> Hits: 5091, Late: 2671, Early: 0, Misses: 0
4bf-> Hits: 19113, Late: 1873, Early: 0, Misses: 1213
4c3-> Hits: 15381, Late: 1175, Early: 0, Misses: 0
4c5-> Hits: 16174, Late: 0, Early: 0, Misses: 0
4c8-> Hits: 17408, Late: 1, Early: 0, Misses: 0
4c9-> Hits: 5192, Late: 12882, Early: 0, Misses: 0
4cd-> Hits: 18074, Late: 0, Early: 0, Misses: 0
4ce-> Hits: 23751, Late: 2390, Early: 0, Misses: 0
4d0-> Hits: 18074, Late: 0, Early: 0, Misses: 0
4d2-> Hits: 696, Late: 17378, Early: 0, Misses: 0
4d7-> Hits: 18074, Late: 0, Early: 0, Misses: 0
4d9-> Hits: 22056, Late: 0, Early: 0, Misses: 0
4de-> Hits: 16372, Late: 14666, Early: 0, Misses: 0
4df-> Hits: 17756, Late: 0, Early: 0, Misses: 0
4e0-> Hits: 2105, Late: 1795, Early: 0, Misses: 657
4e3-> Hits: 24156, Late: 5153, Early: 0, Misses: 0
4e8-> Hits: 14518, Late: 0, Early: 0, Misses: 0
4ea-> Hits: 9179, Late: 0, Early: 0, Misses: 0
4eb-> Hits: 17876, Late: 0, Early: 0, Misses: 0
4ed-> Hits: 2957, Late: 0, Early: 0, Misses: 0
4ef-> Hits: 3022, Late: 2395, Early: 0, Misses: 1825
4f2-> Hits: 19848, Late: 13962, Early: 0, Misses: 0
4f7-> Hits: 24895, Late: 3018, Early: 0, Misses: 0
4f9-> Hits: 12379, Late: 0, Early: 0, Misses: 0
4fc-> Hits: 29885, Late: 0, Early: 0, Misses: 0
502-> Hits: 27595, Late: 0, Early: 0, Misses: 0
504-> Hits: 17916, Late: 0, Early: 0, Misses: 158
507-> Hits: 1373, Late: 16680, Early: 0, Misses: 0
509-> Hits: 36148, Late: 0, Early: 0, Misses: 0
50a-> Hits: 5230, Late: 12844, Early: 0, Misses: 0
50c-> Hits: 1, Late: 0, Early: 0, Misses: 0
50e-> Hits: 5125, Late: 0, Early: 0, Misses: 0
510-> Hits: 7820, Late: 3745, Early: 0, Misses: 0
511-> Hits: 12718, Late: 2684, Early: 0, Misses: 0
513-> Hits: 12704, Late: 787, Early: 0, Misses: 0
516-> Hits: 18074, Late: 0, Early: 0, Misses: 0
518-> Hits: 17663, Late: 0, Early: 0, Misses: 0
51c-> Hits: 17673, Late: 1, Early: 0, Misses: 400
51e-> Hits: 36148, Late: 0, Early: 0, Misses: 0
520-> Hits: 14124, Late: 1459, Early: 0, Misses: 0
523-> Hits: 17189, Late: 0, Early: 0, Misses: 0
525-> Hits: 14842, Late: 1903, Early: 0, Misses: 0
527-> Hits: 4, Late: 18070, Early: 0, Misses: 0
52c-> Hits: 18212, Late: 17936, Early: 0, Misses: 0
52d-> Hits: 15494, Late: 2253, Early: 0, Misses: 0
530-> Hits: 18004, Late: 0, Early: 0, Misses: 0
533-> Hits: 17223, Late: 0, Early: 0, Misses: 0
534-> Hits: 16337, Late: 1482, Early: 0, Misses: 0
536-> Hits: 60, Late: 18014, Early: 0, Misses: 0
539-> Hits: 18074, Late: 0, Early: 0, Misses: 0
53b-> Hits: 28733, Late: 4323, Early: 0, Misses: 0
53c-> Hits: 344, Late: 4456, Early: 0, Misses: 0
53e-> Hits: 17954, Late: 0, Early: 0, Misses: 120
540-> Hits: 17502, Late: 0, Early: 0, Misses: 0
542-> Hits: 0, Late: 18074, Early: 0, Misses: 0
545-> Hits: 5184, Late: 2235, Early: 0, Misses: 0
546-> Hits: 13855, Late: 0, Early: 0, Misses: 0
547-> Hits: 31153, Late: 4995, Early: 0, Misses: 0
54a-> Hits: 13013, Late: 19319, Early: 0, Misses: 0
54b-> Hits: 12744, Late: 0, Early: 0, Misses: 0
550-> Hits: 16129, Late: 4621, Early: 0, Misses: 0
551-> Hits: 1561, Late: 2310, Early: 0, Misses: 0
553-> Hits: 18074, Late: 0, Early: 0, Misses: 0
557-> Hits: 8099, Late: 1822, Early: 0, Misses: 0
558-> Hits: 35543, Late: 0, Early: 0, Misses: 0
55b-> Hits: 22, Late: 18052, Early: 0, Misses: 0
55c-> Hits: 10084, Late: 2442, Early: 0, Misses: 15
55d-> Hits: 17965, Late: 0, Early: 0, Misses: 0
55e-> Hits: 17822, Late: 252, Early: 0, Misses: 0
561-> Hits: 1347, Late: 2503, Early: 0, Misses: 0
562-> Hits: 466, Late: 17608, Early: 0, Misses: 0
565-> Hits: 13140, Late: 0, Early: 0, Misses: 0
567-> Hits: 18074, Late: 0, Early: 0, Misses: 0
568-> Hits: 34546, Late: 0, Early: 0, Misses: 0
56b-> Hits: 33575, Late: 0, Early: 0, Misses: 7
56e-> Hits: 41, Late: 18033, Early: 0, Misses: 0
570-> Hits: 21366, Late: 13519, Early: 0, Misses: 0
573-> Hits: 10945, Late: 19060, Early: 0, Misses: 0
57a-> Hits: 18074, Late: 0, Early: 0, Misses: 0
57b-> Hits: 0, Late: 18074, Early: 0, Misses: 0
57c-> Hits: 17292, Late: 0, Early: 0, Misses: 0
57e-> Hits: 18074, Late: 0, Early: 0, Misses: 0
581-> Hits: 3, Late: 0, Early: 0, Misses: 0
583-> Hits: 5615, Late: 17533, Early: 0, Misses: 0
585-> Hits: 480, Late: 4135, Early: 0, Misses: 0
588-> Hits: 3120, Late: 0, Early: 0, Misses: 0
58a-> Hits: 18074, Late: 18074, Early: 0, Misses: 0
58d-> Hits: 13994, Late: 14739, Early: 0, Misses: 16
591-> Hits: 18074, Late: 0, Early: 0, Misses: 0
597-> Hits: 17491, Late: 0, Early: 0, Misses: 0
598-> Hits: 419, Late: 2199, Early: 0, Misses: 0
59a-> Hits: 15698, Late: 0, Early: 0, Misses: 0
59e-> Hits: 0, Late: 18074, Early: 0, Misses: 0
59f-> Hits: 24553, Late: 0, Early: 0, Misses: 0
5a0-> Hits: 18074, Late: 0, Early: 0, Misses: 0
5a4-> Hits: 455, Late: 17619, Early: 0, Misses: 0
5a6-> Hits: 1265, Late: 0, Early: 0, Misses: 0
5a9-> Hits: 14395, Late: 4715, Early: 0, Misses: 0
5ac-> Hits: 17764, Late: 0, Early: 0, Misses: 0
5ae-> Hits: 0, Late: 18074, Early: 0, Misses: 0
5af-> Hits: 13486, Late: 0, Early: 0, Misses: 0
5b1-> Hits: 18074, Late: 0, Early: 0, Misses: 0
5b3-> Hits: 7641, Late: 0, Early: 0, Misses: 0
5b7-> Hits: 905, Late: 17169, Early: 0, Misses: 0
5b8-> Hits: 18074, Late: 18074, Early: 0, Misses: 0
5b9-> Hits: 17690, Late: 0, Early: 0, Misses: 0
5bc-> Hits: 8740, Late: 0, Early: 0, Misses: 0
5c0-> Hits: 911, Late: 17163, Early: 0, Misses: 0
5c1-> Hits: 2860, Late: 0, Early: 0, Misses: 0
5c3-> Hits: 18074, Late: 0, Early: 0, Misses: 0
5c4-> Hits: 31506, Late: 1729, Early: 0, Misses: 0
5ca-> Hits: 0, Late: 18074, Early: 0, Misses: 0
5cd-> Hits: 6412, Late: 0, Early: 0, Misses: 0
5cf-> Hits: 1412, Late: 16662, Early: 0, Misses: 0
5d0-> Hits: 35734, Late: 414, Early: 0, Misses: 0
5d1-> Hits: 18074, Late: 0, Early: 0, Misses: 0
5d3-> Hits: 18074, Late: 0, Early: 0, Misses: 0
5d5-> Hits: 15943, Late: 12000, Early: 0, Misses: 0
5d8-> Hits: 14204, Late: 0, Early: 0, Misses: 0
5da-> Hits: 28144, Late: 2366, Early: 0, Misses: 0
5dc-> Hits: 18074, Late: 0, Early: 0, Misses: 0
5de-> Hits: 0, Late: 18074, Early: 0, Misses: 0
5e2-> Hits: 18074, Late: 0, Early: 0, Misses: 0
5e4-> Hits: 4929, Late: 31219, Early: 0, Misses: 0
5e9-> Hits: 15661, Late: 0, Early: 0, Misses: 0
5ea-> Hits: 30184, Late: 0, Early: 0, Misses: 0
5ef-> Hits: 25372, Late: 20359, Early: 0, Misses: 0
5f0-> Hits: 18074, Late: 0, Early: 0, Misses: 0
5f1-> Hits: 17515, Late: 0, Early: 0, Misses: 0
5f4-> Hits: 198, Late: 17876, Early: 0, Misses: 0
5f6-> Hits: 28898, Late: 0, Early: 0, Misses: 0
5fe-> Hits: 18074, Late: 0, Early: 0, Misses: 0
5ff-> Hits: 35964, Late: 24, Early: 0, Misses: 160
601-> Hits: 9966, Late: 0, Early: 0, Misses: 0
602-> Hits: 16647, Late: 0, Early: 0, Misses: 0
607-> Hits: 0, Late: 18074, Early: 0, Misses: 0
609-> Hits: 3226, Late: 14848, Early: 0, Misses: 0
60b-> Hits: 17600, Late: 0, Early: 0, Misses: 0
60e-> Hits: 16802, Late: 0, Early: 0, Misses: 0
60f-> Hits: 91, Late: 17983, Early: 0, Misses: 0
611-> Hits: 17153, Late: 0, Early: 0, Misses: 0
613-> Hits: 5710, Late: 12364, Early: 0, Misses: 0
618-> Hits: 18074, Late: 0, Early: 0, Misses: 0
619-> Hits: 1, Late: 18073, Early: 0, Misses: 0
61c-> Hits: 18742, Late: 0, Early: 0, Misses: 0
61f-> Hits: 160, Late: 4452, Early: 0, Misses: 0
621-> Hits: 41841, Late: 10538, Early: 0, Misses: 0
623-> Hits: 10198, Late: 3353, Early: 0, Misses: 0
626-> Hits: 3877, Late: 0, Early: 0, Misses: 0
62a-> Hits: 18074, Late: 0, Early: 0, Misses: 0
62b-> Hits: 7031, Late: 1911, Early: 0, Misses: 0
62d-> Hits: 33158, Late: 18074, Early: 0, Misses: 0
630-> Hits: 8012, Late: 0, Early: 0, Misses: 0
631-> Hits: 1, Late: 0, Early: 0, Misses: 0
632-> Hits: 1, Late: 0, Early: 0, Misses: 0
633-> Hits: 353, Late: 2291, Early: 0, Misses: 0
634-> Hits: 4721, Late: 0, Early: 0, Misses: 0
635-> Hits: 1, Late: 0, Early: 0, Misses: 0
637-> Hits: 1, Late: 0, Early: 0, Misses: 0
639-> Hits: 1, Late: 0, Early: 0, Misses: 0
63a-> Hits: 18074, Late: 0, Early: 0, Misses: 0
63b-> Hits: 1, Late: 0, Early: 0, Misses: 0
63c-> Hits: 5371, Late: 12703, Early: 0, Misses: 0
63d-> Hits: 15167, Late: 0, Early: 0, Misses: 0
63e-> Hits: 0, Late: 18074, Early: 0, Misses: 0
640-> Hits: 30700, Late: 5448, Early: 0, Misses: 0
641-> Hits: 24808, Late: 5219, Early: 0, Misses: 0
642-> Hits: 1, Late: 0, Early: 0, Misses: 0
643-> Hits: 1, Late: 0, Early: 0, Misses: 0
644-> Hits: 483, Late: 2374, Early: 0, Misses: 0
645-> Hits: 1, Late: 0, Early: 0, Misses: 0
647-> Hits: 17505, Late: 0, Early: 0, Misses: 0
649-> Hits: 1, Late: 0, Early: 0, Misses: 0
64b-> Hits: 17773, Late: 0, Early: 0, Misses: 0
64d-> Hits: 18074, Late: 0, Early: 0, Misses: 0
64e-> Hits: 3583, Late: 0, Early: 0, Misses: 1
64f-> Hits: 47260, Late: 1434, Early: 0, Misses: 0
654-> Hits: 25242, Late: 0, Early: 0, Misses: 0
656-> Hits: 59, Late: 18015, Early: 0, Misses: 0
659-> Hits: 673, Late: 17401, Early: 0, Misses: 0
65b-> Hits: 0, Late: 18074, Early: 0, Misses: 0
65c-> Hits: 6395, Late: 11679, Early: 0, Misses: 0
65e-> Hits: 17168, Late: 0, Early: 0, Misses: 0
660-> Hits: 18074, Late: 0, Early: 0, Misses: 0
661-> Hits: 30228, Late: 2257, Early: 0, Misses: 0
665-> Hits: 106, Late: 4465, Early: 0, Misses: 0
666-> Hits: 4893, Late: 13181, Early: 0, Misses: 0
668-> Hits: 18074, Late: 0, Early: 0, Misses: 0
66a-> Hits: 0, Late: 18074, Early: 0, Misses: 0
66c-> Hits: 7994, Late: 0, Early: 0, Misses: 0
66f-> Hits: 17620, Late: 0, Early: 0, Misses: 0
671-> Hits: 25209, Late: 10939, Early: 0, Misses: 0
674-> Hits: 17111, Late: 1498, Early: 0, Misses: 0
676-> Hits: 13800, Late: 2590, Early: 0, Misses: 0
677-> Hits: 1183, Late: 0, Early: 0, Misses: 0
678-> Hits: 909, Late: 2600, Early: 0, Misses: 0
679-> Hits: 12583, Late: 1012, Early: 0, Misses: 0
67c-> Hits: 1977, Late: 0, Early: 0, Misses: 0
67e-> Hits: 17705, Late: 18074, Early: 0, Misses: 0
67f-> Hits: 18074, Late: 0, Early: 0, Misses: 0
681-> Hits: 25290, Late: 10858, Early: 0, Misses: 0
682-> Hits: 16529, Late: 0, Early: 0, Misses: 0
684-> Hits: 1156, Late: 16918, Early: 0, Misses: 0
685-> Hits: 1, Late: 0, Early: 0, Misses: 0
686-> Hits: 5567, Late: 2946, Early: 0, Misses: 0
689-> Hits: 1831, Late: 2674, Early: 0, Misses: 0
68b-> Hits: 14421, Late: 0, Early: 0, Misses: 0
68d-> Hits: 31888, Late: 0, Early: 0, Misses: 0
68e-> Hits: 5325, Late: 30823, Early: 0, Misses: 0
695-> Hits: 5393, Late: 12681, Early: 0, Misses: 0
696-> Hits: 12116, Late: 0, Early: 0, Misses: 0
697-> Hits: 15708, Late: 0, Early: 0, Misses: 2366
698-> Hits: 0, Late: 18074, Early: 0, Misses: 0
69a-> Hits: 6265, Late: 2670, Early: 0, Misses: 0
69c-> Hits: 18074, Late: 0, Early: 0, Misses: 0
69d-> Hits: 2, Late: 18072, Early: 0, Misses: 0
6a5-> Hits: 18074, Late: 0, Early: 0, Misses: 0
6a7-> Hits: 0, Late: 18074, Early: 0, Misses: 0
6a8-> Hits: 17386, Late: 0, Early: 0, Misses: 0
6aa-> Hits: 17655, Late: 0, Early: 0, Misses: 0
6ac-> Hits: 4, Late: 18070, Early: 0, Misses: 0
6b3-> Hits: 130, Late: 17944, Early: 0, Misses: 0
6b5-> Hits: 0, Late: 18074, Early: 0, Misses: 0
6b7-> Hits: 69669, Late: 234, Early: 0, Misses: 1579
6b8-> Hits: 13008, Late: 2680, Early: 0, Misses: 0
6ba-> Hits: 1, Late: 0, Early: 0, Misses: 0
6bb-> Hits: 726, Late: 17348, Early: 0, Misses: 0
6be-> Hits: 8933, Late: 0, Early: 0, Misses: 0
6c0-> Hits: 12470, Late: 5604, Early: 0, Misses: 0
6c3-> Hits: 17910, Late: 0, Early: 0, Misses: 0
6c4-> Hits: 1024, Late: 0, Early: 0, Misses: 0
6c5-> Hits: 0, Late: 18074, Early: 0, Misses: 0
6c6-> Hits: 1331, Late: 16743, Early: 0, Misses: 0
6ca-> Hits: 17171, Late: 0, Early: 0, Misses: 0
6cb-> Hits: 8506, Late: 20307, Early: 0, Misses: 15833
6cc-> Hits: 13487, Late: 0, Early: 0, Misses: 0
6cd-> Hits: 17707, Late: 0, Early: 0, Misses: 0
6d0-> Hits: 17674, Late: 0, Early: 0, Misses: 0
6d3-> Hits: 8135, Late: 1661, Early: 0, Misses: 0
6d5-> Hits: 17922, Late: 18074, Early: 0, Misses: 0
6d9-> Hits: 32, Late: 18042, Early: 0, Misses: 0
6da-> Hits: 18091, Late: 18057, Early: 0, Misses: 0
6dc-> Hits: 4361, Late: 13713, Early: 0, Misses: 0
6de-> Hits: 50663, Late: 0, Early: 0, Misses: 0
6df-> Hits: 18074, Late: 0, Early: 0, Misses: 0
6e1-> Hits: 11039, Late: 2365, Early: 0, Misses: 0
6e3-> Hits: 16084, Late: 0, Early: 0, Misses: 0
6e4-> Hits: 19252, Late: 16896, Early: 0, Misses: 0
6e8-> Hits: 18074, Late: 0, Early: 0, Misses: 0
6eb-> Hits: 4826, Late: 13248, Early: 0, Misses: 0
6ed-> Hits: 12891, Late: 264, Early: 0, Misses: 0
6ef-> Hits: 18695, Late: 2376, Early: 0, Misses: 2064
6f0-> Hits: 17932, Late: 0, Early: 0, Misses: 0
6f1-> Hits: 9033, Late: 3195, Early: 0, Misses: 0
6f5-> Hits: 33793, Late: 0, Early: 0, Misses: 0
6f8-> Hits: 18004, Late: 0, Early: 0, Misses: 0
6ff-> Hits: 16735, Late: 1067, Early: 0, Misses: 0
701-> Hits: 16007, Late: 0, Early: 0, Misses: 0
702-> Hits: 3081, Late: 0, Early: 0, Misses: 0
703-> Hits: 18074, Late: 0, Early: 0, Misses: 0
704-> Hits: 13046, Late: 2303, Early: 0, Misses: 0
708-> Hits: 36148, Late: 0, Early: 0, Misses: 0
70a-> Hits: 1402, Late: 2363, Early: 0, Misses: 0
70b-> Hits: 8411, Late: 0, Early: 0, Misses: 0
70d-> Hits: 17232, Late: 0, Early: 0, Misses: 0
711-> Hits: 13856, Late: 0, Early: 0, Misses: 0
713-> Hits: 9880, Late: 1062, Early: 0, Misses: 0
716-> Hits: 14652, Late: 1933, Early: 0, Misses: 0
718-> Hits: 1282, Late: 0, Early: 0, Misses: 0
71a-> Hits: 18074, Late: 0, Early: 0, Misses: 0
71b-> Hits: 18074, Late: 0, Early: 0, Misses: 0
71e-> Hits: 17398, Late: 676, Early: 0, Misses: 0
720-> Hits: 3734, Late: 14340, Early: 0, Misses: 0
725-> Hits: 32426, Late: 0, Early: 0, Misses: 0
727-> Hits: 21778, Late: 7388, Early: 0, Misses: 0
72a-> Hits: 6125, Late: 11949, Early: 0, Misses: 0
72c-> Hits: 15781, Late: 1203, Early: 0, Misses: 0
731-> Hits: 18062, Late: 0, Early: 0, Misses: 0
734-> Hits: 808, Late: 0, Early: 0, Misses: 0
736-> Hits: 18074, Late: 0, Early: 0, Misses: 0
738-> Hits: 17084, Late: 0, Early: 0, Misses: 0
739-> Hits: 7107, Late: 10967, Early: 0, Misses: 0
73b-> Hits: 4147, Late: 13927, Early: 0, Misses: 0
73c-> Hits: 6, Late: 0, Early: 0, Misses: 0
73d-> Hits: 16221, Late: 1853, Early: 0, Misses: 0
73e-> Hits: 7962, Late: 2855, Early: 0, Misses: 0
740-> Hits: 6, Late: 0, Early: 0, Misses: 0
742-> Hits: 22358, Late: 0, Early: 0, Misses: 0
743-> Hits: 3, Late: 0, Early: 0, Misses: 0
746-> Hits: 1132, Late: 24, Early: 0, Misses: 0
747-> Hits: 9718, Late: 1789, Early: 0, Misses: 0
748-> Hits: 6724, Late: 0, Early: 0, Misses: 0
74c-> Hits: 14514, Late: 2139, Early: 0, Misses: 0
74d-> Hits: 17449, Late: 0, Early: 0, Misses: 0
74f-> Hits: 15781, Late: 0, Early: 0, Misses: 0
750-> Hits: 5513, Late: 12561, Early: 0, Misses: 0
751-> Hits: 18074, Late: 0, Early: 0, Misses: 0
753-> Hits: 18074, Late: 0, Early: 0, Misses: 0
754-> Hits: 18074, Late: 0, Early: 0, Misses: 0
756-> Hits: 9078, Late: 3151, Early: 0, Misses: 0
75b-> Hits: 12011, Late: 2288, Early: 0, Misses: 0
75c-> Hits: 5383, Late: 22, Early: 0, Misses: 0
75e-> Hits: 7, Late: 0, Early: 0, Misses: 0
760-> Hits: 18071, Late: 0, Early: 0, Misses: 3
762-> Hits: 17551, Late: 0, Early: 0, Misses: 0
764-> Hits: 18074, Late: 0, Early: 0, Misses: 0
765-> Hits: 2955, Late: 124, Early: 0, Misses: 0
769-> Hits: 5116, Late: 12958, Early: 0, Misses: 0
76f-> Hits: 5957, Late: 2293, Early: 0, Misses: 0
770-> Hits: 6031, Late: 11942, Early: 0, Misses: 0
772-> Hits: 31203, Late: 0, Early: 0, Misses: 0
773-> Hits: 18074, Late: 0, Early: 0, Misses: 0
777-> Hits: 2213, Late: 0, Early: 0, Misses: 0
77a-> Hits: 8623, Late: 0, Early: 0, Misses: 0
77b-> Hits: 18074, Late: 0, Early: 0, Misses: 0
77c-> Hits: 30302, Late: 640, Early: 0, Misses: 0
77d-> Hits: 0, Late: 1, Early: 0, Misses: 0
77f-> Hits: 7782, Late: 10292, Early: 0, Misses: 0
781-> Hits: 18074, Late: 0, Early: 0, Misses: 0
783-> Hits: 4690, Late: 0, Early: 0, Misses: 0
785-> Hits: 11224, Late: 2937, Early: 0, Misses: 0
787-> Hits: 11156, Late: 0, Early: 0, Misses: 0
789-> Hits: 14523, Late: 1584, Early: 0, Misses: 0
78f-> Hits: 35503, Late: 2082, Early: 0, Misses: 0
790-> Hits: 17778, Late: 0, Early: 0, Misses: 296
791-> Hits: 15507, Late: 2567, Early: 0, Misses: 0
794-> Hits: 6539, Late: 11535, Early: 0, Misses: 0
798-> Hits: 18074, Late: 0, Early: 0, Misses: 0
799-> Hits: 6041, Late: 3482, Early: 0, Misses: 0
79c-> Hits: 14616, Late: 0, Early: 0, Misses: 0
79d-> Hits: 6621, Late: 0, Early: 0, Misses: 0
79e-> Hits: 16566, Late: 862, Early: 0, Misses: 0
7a3-> Hits: 30, Late: 1, Early: 0, Misses: 0
7a4-> Hits: 18074, Late: 0, Early: 0, Misses: 0
7a5-> Hits: 34258, Late: 1888, Early: 0, Misses: 0
7a6-> Hits: 17727, Late: 0, Early: 0, Misses: 0
7a7-> Hits: 1404, Late: 68, Early: 0, Misses: 0
7a8-> Hits: 33, Late: 0, Early: 0, Misses: 0
7a9-> Hits: 8504, Late: 0, Early: 0, Misses: 0
7ac-> Hits: 5538, Late: 30610, Early: 0, Misses: 0
7b2-> Hits: 6618, Late: 3391, Early: 0, Misses: 0
7b7-> Hits: 9988, Late: 48, Early: 0, Misses: 0
7ba-> Hits: 36280, Late: 1220, Early: 0, Misses: 0
7bd-> Hits: 22988, Late: 312, Early: 0, Misses: 0
7bf-> Hits: 18074, Late: 0, Early: 0, Misses: 0
7c4-> Hits: 14373, Late: 2040, Early: 0, Misses: 512
7c5-> Hits: 17933, Late: 0, Early: 0, Misses: 141
7cc-> Hits: 18074, Late: 0, Early: 0, Misses: 0
7cd-> Hits: 4531, Late: 0, Early: 0, Misses: 0
7d2-> Hits: 0, Late: 17874, Early: 0, Misses: 0
7d3-> Hits: 13327, Late: 4747, Early: 0, Misses: 0
7d5-> Hits: 17781, Late: 0, Early: 0, Misses: 0
7d8-> Hits: 0, Late: 18074, Early: 0, Misses: 0
7da-> Hits: 34375, Late: 0, Early: 0, Misses: 0
7db-> Hits: 54, Late: 18020, Early: 0, Misses: 0
7dc-> Hits: 18066, Late: 0, Early: 0, Misses: 8
7dd-> Hits: 17999, Late: 0, Early: 0, Misses: 0
7e0-> Hits: 8845, Late: 3234, Early: 0, Misses: 0
7e3-> Hits: 9, Late: 0, Early: 0, Misses: 0
7e7-> Hits: 18074, Late: 0, Early: 0, Misses: 0
7e8-> Hits: 18074, Late: 0, Early: 0, Misses: 0
7eb-> Hits: 3656, Late: 18309, Early: 0, Misses: 0
7ec-> Hits: 13338, Late: 0, Early: 0, Misses: 0
7f0-> Hits: 1, Late: 0, Early: 0, Misses: 0
7f1-> Hits: 18074, Late: 0, Early: 0, Misses: 0
7f2-> Hits: 18073, Late: 1, Early: 0, Misses: 0
7f4-> Hits: 18074, Late: 0, Early: 0, Misses: 0
7f5-> Hits: 6867, Late: 2288, Early: 0, Misses: 359
7f7-> Hits: 11366, Late: 0, Early: 0, Misses: 0
7f9-> Hits: 226, Late: 17848, Early: 0, Misses: 0
7fd-> Hits: 18074, Late: 0, Early: 0, Misses: 0
804-> Hits: 18074, Late: 0, Early: 0, Misses: 0
807-> Hits: 4560, Late: 0, Early: 0, Misses: 0
808-> Hits: 15155, Late: 2919, Early: 0, Misses: 0
80c-> Hits: 2853, Late: 3931, Early: 0, Misses: 0
80d-> Hits: 18074, Late: 0, Early: 0, Misses: 0
810-> Hits: 15230, Late: 0, Early: 0, Misses: 0
813-> Hits: 11183, Late: 0, Early: 0, Misses: 0
818-> Hits: 12071, Late: 1687, Early: 0, Misses: 0
81a-> Hits: 18074, Late: 0, Early: 0, Misses: 0
81c-> Hits: 17973, Late: 0, Early: 0, Misses: 0
81d-> Hits: 18074, Late: 0, Early: 0, Misses: 0
81e-> Hits: 13404, Late: 6, Early: 0, Misses: 0
822-> Hits: 17993, Late: 0, Early: 0, Misses: 2
829-> Hits: 23549, Late: 0, Early: 0, Misses: 0
82c-> Hits: 10129, Late: 0, Early: 0, Misses: 0
82f-> Hits: 18074, Late: 0, Early: 0, Misses: 0
831-> Hits: 6550, Late: 3000, Early: 0, Misses: 0
834-> Hits: 1567, Late: 47, Early: 0, Misses: 0
835-> Hits: 18074, Late: 0, Early: 0, Misses: 0
836-> Hits: 15109, Late: 1183, Early: 0, Misses: 0
838-> Hits: 36148, Late: 0, Early: 0, Misses: 0
839-> Hits: 18074, Late: 0, Early: 0, Misses: 0
841-> Hits: 20133, Late: 0, Early: 0, Misses: 0
84a-> Hits: 25060, Late: 17861, Early: 0, Misses: 0
84f-> Hits: 18074, Late: 0, Early: 0, Misses: 0
851-> Hits: 15203, Late: 1, Early: 0, Misses: 0
854-> Hits: 36, Late: 0, Early: 0, Misses: 0
856-> Hits: 11205, Late: 1936, Early: 0, Misses: 0
857-> Hits: 18074, Late: 0, Early: 0, Misses: 0
85b-> Hits: 13143, Late: 2153, Early: 0, Misses: 0
85f-> Hits: 16529, Late: 0, Early: 0, Misses: 0
860-> Hits: 15243, Late: 2831, Early: 0, Misses: 0
862-> Hits: 2305, Late: 1, Early: 0, Misses: 0
864-> Hits: 8949, Late: 0, Early: 0, Misses: 0
865-> Hits: 8956, Late: 0, Early: 0, Misses: 0
866-> Hits: 9039, Late: 0, Early: 0, Misses: 0
869-> Hits: 18074, Late: 0, Early: 0, Misses: 0
86a-> Hits: 13723, Late: 2297, Early: 0, Misses: 0
86c-> Hits: 16441, Late: 0, Early: 0, Misses: 0
86f-> Hits: 18074, Late: 1, Early: 0, Misses: 0
873-> Hits: 18074, Late: 0, Early: 0, Misses: 0
876-> Hits: 31738, Late: 3223, Early: 0, Misses: 0
877-> Hits: 18074, Late: 0, Early: 0, Misses: 0
87e-> Hits: 17161, Late: 0, Early: 0, Misses: 0
87f-> Hits: 19074, Late: 17069, Early: 0, Misses: 0
886-> Hits: 4722, Late: 0, Early: 0, Misses: 0
889-> Hits: 11779, Late: 2510, Early: 0, Misses: 0
88a-> Hits: 18074, Late: 0, Early: 0, Misses: 0
88b-> Hits: 11434, Late: 302, Early: 0, Misses: 0
88c-> Hits: 35888, Late: 0, Early: 0, Misses: 0
88d-> Hits: 17091, Late: 0, Early: 0, Misses: 0
88f-> Hits: 7, Late: 0, Early: 0, Misses: 0
890-> Hits: 17786, Late: 1, Early: 0, Misses: 0
891-> Hits: 26370, Late: 330, Early: 0, Misses: 0
898-> Hits: 31679, Late: 1364, Early: 0, Misses: 0
89c-> Hits: 18074, Late: 0, Early: 0, Misses: 0
89d-> Hits: 13909, Late: 1806, Early: 0, Misses: 0
89e-> Hits: 18074, Late: 0, Early: 0, Misses: 0
8a2-> Hits: 6690, Late: 124, Early: 0, Misses: 0
8a5-> Hits: 15396, Late: 2301, Early: 0, Misses: 0
8ab-> Hits: 14598, Late: 2176, Early: 0, Misses: 0
8ac-> Hits: 16312, Late: 1686, Early: 0, Misses: 0
8b0-> Hits: 18202, Late: 0, Early: 0, Misses: 0
8b1-> Hits: 12349, Late: 0, Early: 0, Misses: 0
8b3-> Hits: 15890, Late: 2185, Early: 0, Misses: 0
8b5-> Hits: 3393, Late: 2163, Early: 0, Misses: 0
8b8-> Hits: 8159, Late: 0, Early: 0, Misses: 0
8ba-> Hits: 13786, Late: 16156, Early: 0, Misses: 0
8c0-> Hits: 215, Late: 17859, Early: 0, Misses: 0
8c2-> Hits: 36148, Late: 0, Early: 0, Misses: 0
8c3-> Hits: 18074, Late: 0, Early: 0, Misses: 0
8c4-> Hits: 2208, Late: 1960, Early: 0, Misses: 0
8c5-> Hits: 18074, Late: 0, Early: 0, Misses: 0
8c9-> Hits: 16573, Late: 0, Early: 0, Misses: 0
8ca-> Hits: 18074, Late: 0, Early: 0, Misses: 0
8cd-> Hits: 5, Late: 1, Early: 0, Misses: 0
8ce-> Hits: 7257, Late: 134, Early: 0, Misses: 0
8d1-> Hits: 1118, Late: 16956, Early: 0, Misses: 0
8d5-> Hits: 17606, Late: 0, Early: 0, Misses: 0
8d6-> Hits: 18461, Late: 17688, Early: 0, Misses: 0
8d7-> Hits: 17876, Late: 0, Early: 0, Misses: 0
8da-> Hits: 18074, Late: 0, Early: 0, Misses: 0
8db-> Hits: 21514, Late: 5361, Early: 0, Misses: 0
8df-> Hits: 18074, Late: 0, Early: 0, Misses: 0
8e3-> Hits: 30673, Late: 5475, Early: 0, Misses: 0
8e4-> Hits: 36543, Late: 15991, Early: 0, Misses: 0
8e6-> Hits: 2589, Late: 340, Early: 0, Misses: 0
8e9-> Hits: 7740, Late: 0, Early: 0, Misses: 0
8eb-> Hits: 30711, Late: 5437, Early: 0, Misses: 0
8ed-> Hits: 18074, Late: 0, Early: 0, Misses: 0
8ee-> Hits: 6507, Late: 11567, Early: 0, Misses: 0
8f1-> Hits: 17314, Late: 0, Early: 0, Misses: 0
8f5-> Hits: 17175, Late: 0, Early: 0, Misses: 0
8f7-> Hits: 31404, Late: 4744, Early: 0, Misses: 0
8fa-> Hits: 20727, Late: 70, Early: 0, Misses: 0
8fd-> Hits: 2611, Late: 15464, Early: 0, Misses: 0
900-> Hits: 18074, Late: 0, Early: 0, Misses: 0
902-> Hits: 18074, Late: 0, Early: 0, Misses: 0
905-> Hits: 495, Late: 17579, Early: 0, Misses: 0
906-> Hits: 1406, Late: 3970, Early: 0, Misses: 0
90a-> Hits: 13872, Late: 2340, Early: 0, Misses: 0
90b-> Hits: 7762, Late: 0, Early: 0, Misses: 0
90d-> Hits: 3978, Late: 0, Early: 0, Misses: 0
90f-> Hits: 18074, Late: 0, Early: 0, Misses: 0
910-> Hits: 54222, Late: 0, Early: 0, Misses: 0
911-> Hits: 6, Late: 0, Early: 0, Misses: 0
912-> Hits: 11130, Late: 0, Early: 0, Misses: 0
915-> Hits: 16308, Late: 1, Early: 0, Misses: 1
918-> Hits: 18259, Late: 17889, Early: 0, Misses: 0
919-> Hits: 18074, Late: 0, Early: 0, Misses: 0
91a-> Hits: 17433, Late: 0, Early: 0, Misses: 0
91c-> Hits: 32789, Late: 0, Early: 0, Misses: 0
91e-> Hits: 9291, Late: 0, Early: 0, Misses: 0
923-> Hits: 17710, Late: 0, Early: 0, Misses: 0
926-> Hits: 25932, Late: 4025, Early: 0, Misses: 0
927-> Hits: 18074, Late: 0, Early: 0, Misses: 0
929-> Hits: 30170, Late: 0, Early: 0, Misses: 0
930-> Hits: 35533, Late: 2809, Early: 0, Misses: 0
936-> Hits: 18074, Late: 0, Early: 0, Misses: 0
938-> Hits: 7990, Late: 10084, Early: 0, Misses: 0
939-> Hits: 18074, Late: 0, Early: 0, Misses: 0
93a-> Hits: 52426, Late: 0, Early: 0, Misses: 0
93c-> Hits: 17335, Late: 324, Early: 0, Misses: 0
93d-> Hits: 10654, Late: 2449, Early: 0, Misses: 0
93e-> Hits: 12144, Late: 0, Early: 0, Misses: 0
93f-> Hits: 21238, Late: 2375, Early: 0, Misses: 0
946-> Hits: 18074, Late: 0, Early: 0, Misses: 0
947-> Hits: 5787, Late: 0, Early: 0, Misses: 0
94b-> Hits: 2, Late: 0, Early: 0, Misses: 0
94e-> Hits: 11519, Late: 0, Early: 0, Misses: 0
94f-> Hits: 23713, Late: 12435, Early: 0, Misses: 0
952-> Hits: 5677, Late: 120, Early: 0, Misses: 0
954-> Hits: 7703, Late: 0, Early: 0, Misses: 0
956-> Hits: 16523, Late: 0, Early: 0, Misses: 0
957-> Hits: 17964, Late: 1, Early: 0, Misses: 0
959-> Hits: 10454, Late: 2287, Early: 0, Misses: 0
95c-> Hits: 1, Late: 0, Early: 0, Misses: 0
961-> Hits: 1, Late: 0, Early: 0, Misses: 0
962-> Hits: 29389, Late: 2252, Early: 0, Misses: 0
965-> Hits: 27260, Late: 3083, Early: 0, Misses: 0
966-> Hits: 11139, Late: 0, Early: 0, Misses: 0
967-> Hits: 14751, Late: 0, Early: 0, Misses: 0
968-> Hits: 17470, Late: 0, Early: 0, Misses: 0
969-> Hits: 8646, Late: 0, Early: 0, Misses: 0
96a-> Hits: 18074, Late: 0, Early: 0, Misses: 0
96e-> Hits: 11332, Late: 0, Early: 0, Misses: 0
970-> Hits: 16969, Late: 0, Early: 0, Misses: 0
971-> Hits: 11352, Late: 1276, Early: 0, Misses: 0
97c-> Hits: 18074, Late: 0, Early: 0, Misses: 0
97e-> Hits: 18071, Late: 0, Early: 0, Misses: 0
97f-> Hits: 1279, Late: 0, Early: 0, Misses: 0
981-> Hits: 13963, Late: 2293, Early: 0, Misses: 0
985-> Hits: 18074, Late: 0, Early: 0, Misses: 0
987-> Hits: 18795, Late: 15901, Early: 0, Misses: 0
98c-> Hits: 15507, Late: 0, Early: 0, Misses: 0
98f-> Hits: 30298, Late: 2015, Early: 0, Misses: 0
991-> Hits: 5573, Late: 12501, Early: 0, Misses: 0
992-> Hits: 14216, Late: 3121, Early: 0, Misses: 0
993-> Hits: 26281, Late: 0, Early: 0, Misses: 0
994-> Hits: 23122, Late: 63, Early: 0, Misses: 0
999-> Hits: 378, Late: 17697, Early: 0, Misses: 0
99a-> Hits: 780, Late: 0, Early: 0, Misses: 0
99b-> Hits: 18074, Late: 0, Early: 0, Misses: 0
99c-> Hits: 35770, Late: 0, Early: 0, Misses: 0
99e-> Hits: 15818, Late: 0, Early: 0, Misses: 0
99f-> Hits: 7858, Late: 10216, Early: 0, Misses: 0
9a4-> Hits: 34451, Late: 13526, Early: 0, Misses: 0
9a5-> Hits: 34390, Late: 0, Early: 0, Misses: 0
9a6-> Hits: 7728, Late: 14082, Early: 0, Misses: 0
9a9-> Hits: 11582, Late: 2009, Early: 0, Misses: 0
9aa-> Hits: 1746, Late: 16, Early: 0, Misses: 0
9af-> Hits: 34954, Late: 0, Early: 0, Misses: 0
9b1-> Hits: 18074, Late: 1, Early: 0, Misses: 0
9b2-> Hits: 10336, Late: 0, Early: 0, Misses: 0
9b4-> Hits: 5126, Late: 2390, Early: 0, Misses: 0
9b5-> Hits: 4232, Late: 2020, Early: 0, Misses: 0
9b9-> Hits: 11221, Late: 1185, Early: 0, Misses: 0
9ba-> Hits: 20268, Late: 12593, Early: 0, Misses: 0
9bc-> Hits: 18074, Late: 0, Early: 0, Misses: 0
9be-> Hits: 12599, Late: 5475, Early: 0, Misses: 0
9bf-> Hits: 29937, Late: 2935, Early: 0, Misses: 0
9c0-> Hits: 17698, Late: 376, Early: 0, Misses: 0
9c2-> Hits: 36148, Late: 0, Early: 0, Misses: 0
9c4-> Hits: 1266, Late: 16809, Early: 0, Misses: 0
9c8-> Hits: 17795, Late: 0, Early: 0, Misses: 0
9c9-> Hits: 4673, Late: 0, Early: 0, Misses: 0
9ca-> Hits: 24517, Late: 0, Early: 0, Misses: 0
9ce-> Hits: 44525, Late: 22562, Early: 0, Misses: 0
9d2-> Hits: 7730, Late: 0, Early: 0, Misses: 0
9d5-> Hits: 17259, Late: 0, Early: 0, Misses: 0
9d6-> Hits: 17785, Late: 289, Early: 0, Misses: 0
9da-> Hits: 2053, Late: 16021, Early: 0, Misses: 0
9df-> Hits: 27793, Late: 2221, Early: 0, Misses: 0
9e2-> Hits: 17180, Late: 0, Early: 0, Misses: 0
9e5-> Hits: 6755, Late: 0, Early: 0, Misses: 0
9ea-> Hits: 9540, Late: 17224, Early: 0, Misses: 0
9eb-> Hits: 34875, Late: 0, Early: 0, Misses: 0
9ec-> Hits: 17511, Late: 0, Early: 0, Misses: 0
9ef-> Hits: 19676, Late: 13406, Early: 0, Misses: 0
9f0-> Hits: 18074, Late: 0, Early: 0, Misses: 0
9f1-> Hits: 4, Late: 1, Early: 0, Misses: 0
9f4-> Hits: 13680, Late: 2594, Early: 0, Misses: 0
9f5-> Hits: 13430, Late: 39, Early: 0, Misses: 0
9fa-> Hits: 16747, Late: 0, Early: 0, Misses: 0
9fb-> Hits: 18006, Late: 0, Early: 0, Misses: 0
9fd-> Hits: 1335, Late: 16744, Early: 0, Misses: 0
9fe-> Hits: 2180, Late: 0, Early: 0, Misses: 0
a01-> Hits: 8843, Late: 0, Early: 0, Misses: 0
a02-> Hits: 8951, Late: 0, Early: 0, Misses: 0
a03-> Hits: 5384, Late: 12690, Early: 0, Misses: 0
a05-> Hits: 14638, Late: 0, Early: 0, Misses: 0
a08-> Hits: 25231, Late: 2655, Early: 0, Misses: 0
a0a-> Hits: 8244, Late: 1695, Early: 0, Misses: 0
a0b-> Hits: 5472, Late: 28, Early: 0, Misses: 0
a0f-> Hits: 12972, Late: 0, Early: 0, Misses: 0
a12-> Hits: 17288, Late: 0, Early: 0, Misses: 0
a13-> Hits: 1110, Late: 0, Early: 0, Misses: 0
a17-> Hits: 5753, Late: 12321, Early: 0, Misses: 0
a18-> Hits: 18074, Late: 0, Early: 0, Misses: 0
a1a-> Hits: 12527, Late: 0, Early: 0, Misses: 0
a1b-> Hits: 59153, Late: 12665, Early: 0, Misses: 0
a1c-> Hits: 7109, Late: 3118, Early: 0, Misses: 0
a20-> Hits: 9215, Late: 2364, Early: 0, Misses: 0
a21-> Hits: 1987, Late: 2, Early: 0, Misses: 0
a2a-> Hits: 24204, Late: 0, Early: 0, Misses: 0
a2c-> Hits: 16058, Late: 0, Early: 0, Misses: 0
a2d-> Hits: 18074, Late: 0, Early: 0, Misses: 0
a30-> Hits: 3, Late: 0, Early: 0, Misses: 0
a31-> Hits: 3, Late: 0, Early: 0, Misses: 0
a32-> Hits: 4776, Late: 13302, Early: 0, Misses: 0
a33-> Hits: 18069, Late: 0, Early: 0, Misses: 5
a34-> Hits: 3, Late: 0, Early: 0, Misses: 0
a36-> Hits: 3, Late: 0, Early: 0, Misses: 0
a37-> Hits: 57943, Late: 0, Early: 0, Misses: 0
a38-> Hits: 3, Late: 0, Early: 0, Misses: 0
a3b-> Hits: 3682, Late: 0, Early: 0, Misses: 0
a3c-> Hits: 27352, Late: 2527, Early: 0, Misses: 0
a3f-> Hits: 18074, Late: 0, Early: 0, Misses: 0
a40-> Hits: 0, Late: 18040, Early: 0, Misses: 0
a41-> Hits: 18069, Late: 0, Early: 0, Misses: 0
a45-> Hits: 18074, Late: 0, Early: 0, Misses: 0
a46-> Hits: 867, Late: 0, Early: 0, Misses: 0
a48-> Hits: 5592, Late: 0, Early: 0, Misses: 0
a4a-> Hits: 20654, Late: 0, Early: 0, Misses: 0
a4b-> Hits: 24196, Late: 0, Early: 0, Misses: 0
a4c-> Hits: 25343, Late: 0, Early: 0, Misses: 0
a4d-> Hits: 10594, Late: 2, Early: 0, Misses: 0
a4e-> Hits: 26569, Late: 19793, Early: 0, Misses: 0
a52-> Hits: 16843, Late: 0, Early: 0, Misses: 0
a55-> Hits: 25676, Late: 1297, Early: 0, Misses: 0
a5a-> Hits: 1199, Late: 16876, Early: 0, Misses: 0
a5b-> Hits: 18074, Late: 0, Early: 0, Misses: 0
a5e-> Hits: 17380, Late: 0, Early: 0, Misses: 0
a5f-> Hits: 4486, Late: 13589, Early: 0, Misses: 0
a61-> Hits: 49, Late: 18025, Early: 0, Misses: 0
a63-> Hits: 18074, Late: 0, Early: 0, Misses: 0
a65-> Hits: 1, Late: 0, Early: 0, Misses: 0
a68-> Hits: 36143, Late: 0, Early: 0, Misses: 0
a69-> Hits: 14057, Late: 0, Early: 0, Misses: 0
a6e-> Hits: 7222, Late: 10853, Early: 0, Misses: 0
a6f-> Hits: 6469, Late: 11606, Early: 0, Misses: 0
a70-> Hits: 9083, Late: 0, Early: 0, Misses: 0
a73-> Hits: 11566, Late: 0, Early: 0, Misses: 0
a76-> Hits: 15848, Late: 0, Early: 0, Misses: 0
a78-> Hits: 8806, Late: 2019, Early: 0, Misses: 0
a79-> Hits: 1132, Late: 0, Early: 0, Misses: 0
a7a-> Hits: 10896, Late: 0, Early: 0, Misses: 0
a80-> Hits: 1, Late: 0, Early: 0, Misses: 0
a81-> Hits: 5260, Late: 12815, Early: 0, Misses: 0
a82-> Hits: 1147, Late: 1702, Early: 0, Misses: 0
a83-> Hits: 18074, Late: 0, Early: 0, Misses: 0
a87-> Hits: 11288, Late: 3466, Early: 0, Misses: 0
a89-> Hits: 11620, Late: 0, Early: 0, Misses: 0
a8e-> Hits: 38123, Late: 2904, Early: 0, Misses: 0
a8f-> Hits: 6643, Late: 0, Early: 0, Misses: 0
a90-> Hits: 18074, Late: 0, Early: 0, Misses: 0
a93-> Hits: 18074, Late: 0, Early: 0, Misses: 0
a99-> Hits: 9725, Late: 0, Early: 0, Misses: 0
a9a-> Hits: 16789, Late: 0, Early: 0, Misses: 0
a9e-> Hits: 1, Late: 0, Early: 0, Misses: 0
a9f-> Hits: 18074, Late: 0, Early: 0, Misses: 0
aa2-> Hits: 7381, Late: 10694, Early: 0, Misses: 0
aa5-> Hits: 35412, Late: 0, Early: 0, Misses: 0
aa7-> Hits: 10779, Late: 6050, Early: 0, Misses: 0
aa8-> Hits: 18074, Late: 0, Early: 0, Misses: 0
aab-> Hits: 2, Late: 0, Early: 0, Misses: 0
aac-> Hits: 15602, Late: 903, Early: 0, Misses: 0
ab2-> Hits: 9750, Late: 13407, Early: 0, Misses: 0
ab3-> Hits: 2, Late: 0, Early: 0, Misses: 0
ab5-> Hits: 17390, Late: 0, Early: 0, Misses: 0
ab8-> Hits: 13666, Late: 2765, Early: 0, Misses: 0
abb-> Hits: 23991, Late: 9380, Early: 0, Misses: 0
abe-> Hits: 18074, Late: 0, Early: 0, Misses: 0
abf-> Hits: 11698, Late: 0, Early: 0, Misses: 0
ac0-> Hits: 17765, Late: 0, Early: 0, Misses: 0
ac2-> Hits: 26175, Late: 0, Early: 0, Misses: 0
ac7-> Hits: 32268, Late: 14436, Early: 0, Misses: 0
ac8-> Hits: 18074, Late: 0, Early: 0, Misses: 0
acc-> Hits: 17569, Late: 4592, Early: 0, Misses: 0
acd-> Hits: 18074, Late: 0, Early: 0, Misses: 0
ace-> Hits: 9027, Late: 0, Early: 0, Misses: 0
ad3-> Hits: 5068, Late: 0, Early: 0, Misses: 0
ad4-> Hits: 17828, Late: 0, Early: 0, Misses: 0
ad5-> Hits: 18074, Late: 0, Early: 0, Misses: 0
ad6-> Hits: 18074, Late: 0, Early: 0, Misses: 0
ad7-> Hits: 4982, Late: 13094, Early: 0, Misses: 0
adb-> Hits: 12094, Late: 2364, Early: 0, Misses: 0
adc-> Hits: 9785, Late: 0, Early: 0, Misses: 0
add-> Hits: 20878, Late: 3212, Early: 0, Misses: 0
ade-> Hits: 18267, Late: 0, Early: 0, Misses: 0
ae0-> Hits: 18181, Late: 0, Early: 0, Misses: 0
ae5-> Hits: 17569, Late: 0, Early: 0, Misses: 0
ae8-> Hits: 13, Late: 0, Early: 0, Misses: 0
aea-> Hits: 18074, Late: 0, Early: 0, Misses: 0
aeb-> Hits: 13046, Late: 0, Early: 0, Misses: 0
af0-> Hits: 22088, Late: 14054, Early: 0, Misses: 0
af4-> Hits: 32009, Late: 0, Early: 0, Misses: 0
af6-> Hits: 29919, Late: 0, Early: 0, Misses: 0
af7-> Hits: 18973, Late: 0, Early: 0, Misses: 0
af8-> Hits: 14506, Late: 0, Early: 0, Misses: 0
afc-> Hits: 12826, Late: 216, Early: 0, Misses: 0
afd-> Hits: 0, Late: 18072, Early: 0, Misses: 0
aff-> Hits: 17156, Late: 0, Early: 0, Misses: 0
b01-> Hits: 13472, Late: 1580, Early: 0, Misses: 0
b02-> Hits: 1159, Late: 0, Early: 0, Misses: 0
b03-> Hits: 3, Late: 0, Early: 0, Misses: 0
b06-> Hits: 16096, Late: 0, Early: 0, Misses: 0
b07-> Hits: 15925, Late: 882, Early: 0, Misses: 0
b0a-> Hits: 35635, Late: 18046, Early: 0, Misses: 0
b0c-> Hits: 18074, Late: 0, Early: 0, Misses: 0
b0f-> Hits: 107, Late: 0, Early: 0, Misses: 1
b10-> Hits: 16185, Late: 0, Early: 0, Misses: 0
b16-> Hits: 16887, Late: 1139, Early: 0, Misses: 0
b17-> Hits: 17104, Late: 0, Early: 0, Misses: 0
b19-> Hits: 17459, Late: 0, Early: 0, Misses: 0
b1a-> Hits: 11, Late: 18064, Early: 0, Misses: 0
b1d-> Hits: 16641, Late: 1433, Early: 0, Misses: 0
b24-> Hits: 11135, Late: 18074, Early: 0, Misses: 0
b25-> Hits: 13748, Late: 0, Early: 0, Misses: 0
b26-> Hits: 18074, Late: 0, Early: 0, Misses: 0
b28-> Hits: 17, Late: 18058, Early: 0, Misses: 0
b29-> Hits: 15937, Late: 0, Early: 0, Misses: 2137
b2d-> Hits: 15004, Late: 0, Early: 0, Misses: 0
b2e-> Hits: 1455, Late: 1638, Early: 0, Misses: 0
b30-> Hits: 17847, Late: 0, Early: 0, Misses: 119
b31-> Hits: 236, Late: 17839, Early: 0, Misses: 0
b32-> Hits: 18074, Late: 0, Early: 0, Misses: 0
b34-> Hits: 1036, Late: 0, Early: 0, Misses: 0
b35-> Hits: 17197, Late: 0, Early: 0, Misses: 0
b38-> Hits: 17736, Late: 0, Early: 0, Misses: 0
b3b-> Hits: 1777, Late: 4761, Early: 0, Misses: 0
b3f-> Hits: 18074, Late: 0, Early: 0, Misses: 0
b40-> Hits: 54, Late: 18020, Early: 0, Misses: 0
b41-> Hits: 18074, Late: 0, Early: 0, Misses: 0
b44-> Hits: 7964, Late: 1, Early: 0, Misses: 88
b45-> Hits: 26921, Late: 3028, Early: 0, Misses: 0
b4a-> Hits: 2, Late: 0, Early: 0, Misses: 0
b4c-> Hits: 2143, Late: 18074, Early: 0, Misses: 0
b4e-> Hits: 18074, Late: 0, Early: 0, Misses: 0
b52-> Hits: 2, Late: 0, Early: 0, Misses: 0
b53-> Hits: 2, Late: 0, Early: 0, Misses: 0
b54-> Hits: 2, Late: 0, Early: 0, Misses: 0
b55-> Hits: 2888, Late: 95, Early: 0, Misses: 0
b56-> Hits: 2, Late: 0, Early: 0, Misses: 0
b57-> Hits: 1328, Late: 2280, Early: 0, Misses: 0
b58-> Hits: 2, Late: 0, Early: 0, Misses: 0
b5a-> Hits: 2, Late: 0, Early: 0, Misses: 0
b5b-> Hits: 69, Late: 18005, Early: 0, Misses: 0
b5c-> Hits: 16734, Late: 0, Early: 0, Misses: 0
b5e-> Hits: 10881, Late: 0, Early: 0, Misses: 0
b5f-> Hits: 17498, Late: 0, Early: 0, Misses: 0
b63-> Hits: 13638, Late: 1771, Early: 0, Misses: 0
b69-> Hits: 720, Late: 0, Early: 0, Misses: 0
b6a-> Hits: 15475, Late: 3683, Early: 0, Misses: 4
b6b-> Hits: 14025, Late: 0, Early: 0, Misses: 0
b6c-> Hits: 918, Late: 2632, Early: 0, Misses: 14524
b6d-> Hits: 17973, Late: 0, Early: 0, Misses: 0
b72-> Hits: 6844, Late: 18074, Early: 0, Misses: 0
b75-> Hits: 9174, Late: 4367, Early: 0, Misses: 1188
b76-> Hits: 31923, Late: 0, Early: 0, Misses: 0
b7b-> Hits: 16294, Late: 1022, Early: 0, Misses: 0
b7f-> Hits: 18074, Late: 0, Early: 0, Misses: 0
b81-> Hits: 14931, Late: 0, Early: 0, Misses: 9
b82-> Hits: 18175, Late: 7, Early: 0, Misses: 124
b85-> Hits: 18074, Late: 0, Early: 0, Misses: 0
b89-> Hits: 0, Late: 18074, Early: 0, Misses: 0
b8a-> Hits: 18074, Late: 0, Early: 0, Misses: 0
b8b-> Hits: 18949, Late: 17200, Early: 0, Misses: 0
b8e-> Hits: 17842, Late: 0, Early: 0, Misses: 0
b92-> Hits: 16020, Late: 0, Early: 0, Misses: 0
b96-> Hits: 16755, Late: 0, Early: 0, Misses: 0
b97-> Hits: 11521, Late: 2018, Early: 0, Misses: 0
b98-> Hits: 17928, Late: 0, Early: 0, Misses: 146
b9c-> Hits: 31058, Late: 2273, Early: 0, Misses: 0
b9d-> Hits: 3371, Late: 1724, Early: 0, Misses: 3223
b9e-> Hits: 18074, Late: 0, Early: 0, Misses: 0
ba0-> Hits: 16725, Late: 18074, Early: 0, Misses: 0
ba3-> Hits: 25105, Late: 2342, Early: 0, Misses: 0
ba8-> Hits: 18075, Late: 0, Early: 0, Misses: 0
ba9-> Hits: 10630, Late: 0, Early: 0, Misses: 0
bac-> Hits: 2963, Late: 1827, Early: 0, Misses: 93
bad-> Hits: 18074, Late: 0, Early: 0, Misses: 0
baf-> Hits: 31769, Late: 0, Early: 0, Misses: 1
bb0-> Hits: 8, Late: 0, Early: 0, Misses: 0
bb5-> Hits: 10746, Late: 0, Early: 0, Misses: 0
bb7-> Hits: 0, Late: 18074, Early: 0, Misses: 0
bb8-> Hits: 1428, Late: 16630, Early: 0, Misses: 0
bbf-> Hits: 2185, Late: 0, Early: 0, Misses: 0
bc1-> Hits: 35719, Late: 0, Early: 0, Misses: 0
bc4-> Hits: 13840, Late: 438, Early: 0, Misses: 0
bc6-> Hits: 1495, Late: 0, Early: 0, Misses: 22
bc8-> Hits: 6, Late: 0, Early: 0, Misses: 0
bc9-> Hits: 17079, Late: 0, Early: 0, Misses: 0
[...]
cbd-> Hits: 17469, Late: 0, Early: 0, Misses: 0
cc1-> Hits: 15319, Late: 0, Early: 0, Misses: 0
cc2-> Hits: 129, Late: 14299, Early: 0, Misses: 3646
cc6-> Hits: 23157, Late: 12992, Early: 0, Misses: 0
cc7-> Hits: 18074, Late: 0, Early: 0, Misses: 0
cc9-> Hits: 3449, Late: 0, Early: 0, Misses: 0
ccb-> Hits: 2, Late: 0, Early: 0, Misses: 0
ccf-> Hits: 1365, Late: 0, Early: 0, Misses: 0
cd1-> Hits: 31137, Late: 0, Early: 0, Misses: 232
cd3-> Hits: 18074, Late: 0, Early: 0, Misses: 0
cd4-> Hits: 24915, Late: 11233, Early: 0, Misses: 0
cd8-> Hits: 9148, Late: 3900, Early: 0, Misses: 0
cd9-> Hits: 8894, Late: 18074, Early: 0, Misses: 0
cdc-> Hits: 13492, Late: 0, Early: 0, Misses: 0
cdd-> Hits: 12041, Late: 0, Early: 0, Misses: 0
cde-> Hits: 8649, Late: 2004, Early: 0, Misses: 0
ce5-> Hits: 13229, Late: 0, Early: 0, Misses: 0
ce6-> Hits: 3, Late: 0, Early: 0, Misses: 0
ce7-> Hits: 7316, Late: 0, Early: 0, Misses: 0
cea-> Hits: 18074, Late: 0, Early: 0, Misses: 0
ceb-> Hits: 19, Late: 0, Early: 0, Misses: 0
cec-> Hits: 14449, Late: 0, Early: 0, Misses: 0
cef-> Hits: 5300, Late: 12774, Early: 0, Misses: 0
cf1-> Hits: 12090, Late: 0, Early: 0, Misses: 0
cf4-> Hits: 20803, Late: 6097, Early: 0, Misses: 0
cf7-> Hits: 885, Late: 0, Early: 0, Misses: 11
cfa-> Hits: 17343, Late: 0, Early: 0, Misses: 0
cff-> Hits: 36844, Late: 5331, Early: 0, Misses: 12047
d01-> Hits: 1, Late: 0, Early: 0, Misses: 0
d02-> Hits: 12151, Late: 2002, Early: 0, Misses: 0
d05-> Hits: 1415, Late: 0, Early: 0, Misses: 0
d07-> Hits: 22193, Late: 0, Early: 0, Misses: 0
d08-> Hits: 17593, Late: 0, Early: 0, Misses: 0
d09-> Hits: 3, Late: 0, Early: 0, Misses: 0
d0c-> Hits: 1251, Late: 16824, Early: 0, Misses: 0
d0e-> Hits: 15620, Late: 0, Early: 0, Misses: 94
d0f-> Hits: 5936, Late: 12138, Early: 0, Misses: 0
d10-> Hits: 106, Late: 0, Early: 0, Misses: 0
d11-> Hits: 28850, Late: 0, Early: 0, Misses: 0
d14-> Hits: 27508, Late: 2270, Early: 0, Misses: 0
d15-> Hits: 7189, Late: 0, Early: 0, Misses: 0
d16-> Hits: 49, Late: 2082, Early: 0, Misses: 15943
d19-> Hits: 3806, Late: 14397, Early: 0, Misses: 0
d1e-> Hits: 34135, Late: 0, Early: 0, Misses: 0
d1f-> Hits: 8000, Late: 0, Early: 0, Misses: 0
d22-> Hits: 17250, Late: 0, Early: 0, Misses: 0
d24-> Hits: 5801, Late: 12273, Early: 0, Misses: 0
d27-> Hits: 4727, Late: 2205, Early: 0, Misses: 0
d29-> Hits: 27733, Late: 2608, Early: 0, Misses: 246
d2b-> Hits: 17668, Late: 0, Early: 0, Misses: 0
d2c-> Hits: 11300, Late: 991, Early: 0, Misses: 0
d2d-> Hits: 18074, Late: 0, Early: 0, Misses: 0
d2f-> Hits: 17363, Late: 0, Early: 0, Misses: 0
d30-> Hits: 12618, Late: 0, Early: 0, Misses: 0
d31-> Hits: 56, Late: 527, Early: 0, Misses: 17491
d32-> Hits: 18075, Late: 0, Early: 0, Misses: 0
d33-> Hits: 1096, Late: 0, Early: 0, Misses: 0
d34-> Hits: 18074, Late: 0, Early: 0, Misses: 0
d37-> Hits: 19326, Late: 16823, Early: 0, Misses: 0
d38-> Hits: 7610, Late: 10464, Early: 0, Misses: 0
d3c-> Hits: 1894, Late: 0, Early: 0, Misses: 0
d3d-> Hits: 7573, Late: 2612, Early: 0, Misses: 0
d40-> Hits: 18074, Late: 0, Early: 0, Misses: 0
d41-> Hits: 22526, Late: 12420, Early: 0, Misses: 0
d43-> Hits: 12281, Late: 0, Early: 0, Misses: 1
d48-> Hits: 12084, Late: 0, Early: 0, Misses: 0
d49-> Hits: 18075, Late: 0, Early: 0, Misses: 0
d4a-> Hits: 18074, Late: 1, Early: 0, Misses: 0
d4b-> Hits: 124, Late: 151, Early: 0, Misses: 17799
d4d-> Hits: 13100, Late: 0, Early: 0, Misses: 0
d50-> Hits: 5334, Late: 12743, Early: 0, Misses: 0
d52-> Hits: 8593, Late: 0, Early: 0, Misses: 0
d53-> Hits: 18074, Late: 0, Early: 0, Misses: 0
d55-> Hits: 5267, Late: 3437, Early: 0, Misses: 0
d56-> Hits: 15862, Late: 0, Early: 0, Misses: 0
d5c-> Hits: 18069, Late: 0, Early: 0, Misses: 0
d5e-> Hits: 725, Late: 0, Early: 0, Misses: 0
d63-> Hits: 18769, Late: 0, Early: 0, Misses: 0
d64-> Hits: 23624, Late: 0, Early: 0, Misses: 236
d65-> Hits: 12119, Late: 0, Early: 0, Misses: 0
d68-> Hits: 17737, Late: 0, Early: 0, Misses: 337
d69-> Hits: 387, Late: 17688, Early: 0, Misses: 0
d6c-> Hits: 18126, Late: 0, Early: 0, Misses: 0
d6d-> Hits: 18074, Late: 0, Early: 0, Misses: 0
d6e-> Hits: 11914, Late: 2457, Early: 0, Misses: 0
d6f-> Hits: 238, Late: 0, Early: 0, Misses: 2
d70-> Hits: 10037, Late: 18074, Early: 0, Misses: 0
d74-> Hits: 7173, Late: 0, Early: 0, Misses: 0
d76-> Hits: 18957, Late: 0, Early: 0, Misses: 0
d79-> Hits: 18074, Late: 0, Early: 0, Misses: 0
d7b-> Hits: 18074, Late: 0, Early: 0, Misses: 0
d7c-> Hits: 1405, Late: 16670, Early: 0, Misses: 0
d7e-> Hits: 135, Late: 17939, Early: 0, Misses: 0
d82-> Hits: 25576, Late: 0, Early: 0, Misses: 0
d87-> Hits: 14263, Late: 0, Early: 0, Misses: 0
d8a-> Hits: 9362, Late: 1719, Early: 0, Misses: 0
d8e-> Hits: 10, Late: 13841, Early: 0, Misses: 4223
d8f-> Hits: 30956, Late: 5192, Early: 0, Misses: 0
d90-> Hits: 100, Late: 0, Early: 0, Misses: 0
d94-> Hits: 32349, Late: 0, Early: 0, Misses: 0
d98-> Hits: 16013, Late: 0, Early: 0, Misses: 0
d99-> Hits: 113, Late: 0, Early: 0, Misses: 0
d9c-> Hits: 21853, Late: 30860, Early: 0, Misses: 0
d9d-> Hits: 17256, Late: 0, Early: 0, Misses: 0
da1-> Hits: 27727, Late: 2512, Early: 0, Misses: 0
da5-> Hits: 4400, Late: 0, Early: 0, Misses: 0
da6-> Hits: 4, Late: 0, Early: 0, Misses: 0
da7-> Hits: 455, Late: 17619, Early: 0, Misses: 0
dab-> Hits: 5826, Late: 0, Early: 0, Misses: 0
daf-> Hits: 1108, Late: 84, Early: 0, Misses: 0
db2-> Hits: 18766, Late: 4225, Early: 0, Misses: 297
db3-> Hits: 4756, Late: 13319, Early: 0, Misses: 0
db4-> Hits: 864, Late: 0, Early: 0, Misses: 0
db8-> Hits: 8793, Late: 0, Early: 0, Misses: 0
dbd-> Hits: 11649, Late: 2573, Early: 0, Misses: 0
dcb-> Hits: 26166, Late: 0, Early: 0, Misses: 0
dcd-> Hits: 6034, Late: 2553, Early: 0, Misses: 0
dcf-> Hits: 12641, Late: 2329, Early: 0, Misses: 0
dd3-> Hits: 11, Late: 0, Early: 0, Misses: 0
dd4-> Hits: 12239, Late: 0, Early: 0, Misses: 0
dd6-> Hits: 8445, Late: 0, Early: 0, Misses: 0
dd8-> Hits: 17582, Late: 0, Early: 0, Misses: 0
dd9-> Hits: 11133, Late: 2084, Early: 0, Misses: 0
ddc-> Hits: 18074, Late: 0, Early: 0, Misses: 0
dde-> Hits: 29360, Late: 1343, Early: 0, Misses: 0
de3-> Hits: 1192, Late: 16883, Early: 0, Misses: 0
de5-> Hits: 13669, Late: 0, Early: 0, Misses: 0
de8-> Hits: 14173, Late: 0, Early: 0, Misses: 0
de9-> Hits: 17059, Late: 0, Early: 0, Misses: 0
dea-> Hits: 18074, Late: 0, Early: 0, Misses: 0
dec-> Hits: 11548, Late: 0, Early: 0, Misses: 124
ded-> Hits: 4128, Late: 13947, Early: 0, Misses: 0
df2-> Hits: 25019, Late: 2542, Early: 0, Misses: 0
df5-> Hits: 19, Late: 0, Early: 0, Misses: 0
df6-> Hits: 18105, Late: 0, Early: 0, Misses: 0
df7-> Hits: 15674, Late: 1067, Early: 0, Misses: 0
df9-> Hits: 19, Late: 0, Early: 0, Misses: 0
dfb-> Hits: 25265, Late: 10705, Early: 0, Misses: 0
e00-> Hits: 10589, Late: 0, Early: 0, Misses: 0
e05-> Hits: 8476, Late: 2080, Early: 0, Misses: 0
e06-> Hits: 2168, Late: 15906, Early: 0, Misses: 0
e0a-> Hits: 18067, Late: 0, Early: 0, Misses: 0
e0d-> Hits: 15836, Late: 0, Early: 0, Misses: 0
e0e-> Hits: 8354, Late: 0, Early: 0, Misses: 0
e0f-> Hits: 6127, Late: 0, Early: 0, Misses: 0
e12-> Hits: 10540, Late: 2027, Early: 0, Misses: 0
e13-> Hits: 18074, Late: 0, Early: 0, Misses: 0
e16-> Hits: 5569, Late: 12506, Early: 0, Misses: 0
e17-> Hits: 18074, Late: 0, Early: 0, Misses: 0
e18-> Hits: 12621, Late: 2239, Early: 0, Misses: 0
e1b-> Hits: 12889, Late: 3623, Early: 0, Misses: 0
e1f-> Hits: 1226, Late: 0, Early: 0, Misses: 0
e22-> Hits: 18074, Late: 0, Early: 0, Misses: 0
e26-> Hits: 16637, Late: 0, Early: 0, Misses: 0
e27-> Hits: 13238, Late: 2304, Early: 0, Misses: 0
e2a-> Hits: 17555, Late: 0, Early: 0, Misses: 0
e2d-> Hits: 18074, Late: 0, Early: 0, Misses: 0
e2e-> Hits: 3915, Late: 0, Early: 0, Misses: 0
e33-> Hits: 2310, Late: 0, Early: 0, Misses: 0
e35-> Hits: 2699, Late: 0, Early: 0, Misses: 0
e36-> Hits: 37586, Late: 10591, Early: 0, Misses: 139
e3b-> Hits: 6034, Late: 2425, Early: 0, Misses: 0
e3d-> Hits: 2691, Late: 15376, Early: 0, Misses: 0
e3e-> Hits: 30590, Late: 1, Early: 0, Misses: 5557
e40-> Hits: 34136, Late: 57, Early: 0, Misses: 0
e44-> Hits: 2471, Late: 0, Early: 0, Misses: 0
e46-> Hits: 8437, Late: 0, Early: 0, Misses: 0
e47-> Hits: 15655, Late: 0, Early: 0, Misses: 0
e49-> Hits: 13003, Late: 696, Early: 0, Misses: 0
e4b-> Hits: 6799, Late: 11276, Early: 0, Misses: 0
e4f-> Hits: 17841, Late: 0, Early: 0, Misses: 0
e50-> Hits: 11210, Late: 2855, Early: 0, Misses: 0
e54-> Hits: 34275, Late: 0, Early: 0, Misses: 0
e57-> Hits: 14241, Late: 1411, Early: 0, Misses: 0
e5a-> Hits: 1585, Late: 0, Early: 0, Misses: 0
e5c-> Hits: 14319, Late: 2062, Early: 0, Misses: 0
e5d-> Hits: 5543, Late: 0, Early: 0, Misses: 0
e5f-> Hits: 6845, Late: 11230, Early: 0, Misses: 0
e64-> Hits: 8734, Late: 3186, Early: 0, Misses: 0
e66-> Hits: 536, Late: 0, Early: 0, Misses: 0
e6b-> Hits: 34647, Late: 1359, Early: 0, Misses: 0
e6f-> Hits: 28833, Late: 0, Early: 0, Misses: 0
e70-> Hits: 1, Late: 0, Early: 0, Misses: 0
e72-> Hits: 16089, Late: 1980, Early: 0, Misses: 0
e77-> Hits: 6056, Late: 12019, Early: 0, Misses: 0
e78-> Hits: 1, Late: 0, Early: 0, Misses: 0
e79-> Hits: 1, Late: 18074, Early: 0, Misses: 0
e7a-> Hits: 1, Late: 0, Early: 0, Misses: 0
e7c-> Hits: 9465, Late: 3201, Early: 0, Misses: 0
e7e-> Hits: 1, Late: 0, Early: 0, Misses: 0
e80-> Hits: 1, Late: 0, Early: 0, Misses: 0
e82-> Hits: 3, Late: 0, Early: 0, Misses: 0
e83-> Hits: 1273, Late: 1992, Early: 0, Misses: 0
e86-> Hits: 18074, Late: 0, Early: 0, Misses: 0
e8d-> Hits: 28372, Late: 2301, Early: 0, Misses: 36
e8f-> Hits: 32180, Late: 1, Early: 0, Misses: 148
e97-> Hits: 469, Late: 17606, Early: 0, Misses: 0
e99-> Hits: 18074, Late: 0, Early: 0, Misses: 0
e9c-> Hits: 0, Late: 18075, Early: 0, Misses: 0
ea0-> Hits: 18028, Late: 0, Early: 0, Misses: 0
ea1-> Hits: 3, Late: 0, Early: 0, Misses: 0
ea3-> Hits: 46, Late: 18028, Early: 0, Misses: 0
ea8-> Hits: 6647, Late: 4744, Early: 0, Misses: 0
ea9-> Hits: 18074, Late: 0, Early: 0, Misses: 0
eab-> Hits: 17384, Late: 0, Early: 0, Misses: 0
eaf-> Hits: 16, Late: 18059, Early: 0, Misses: 0
eb8-> Hits: 2463, Late: 525, Early: 0, Misses: 0
ebc-> Hits: 18327, Late: 17822, Early: 0, Misses: 0
ebe-> Hits: 18074, Late: 0, Early: 0, Misses: 0
ec2-> Hits: 6664, Late: 2397, Early: 0, Misses: 83
ec7-> Hits: 9809, Late: 0, Early: 0, Misses: 0
ece-> Hits: 18074, Late: 0, Early: 0, Misses: 0
ecf-> Hits: 434, Late: 2290, Early: 0, Misses: 0
ed1-> Hits: 2, Late: 0, Early: 0, Misses: 0
ed6-> Hits: 12020, Late: 0, Early: 0, Misses: 0
eda-> Hits: 18849, Late: 0, Early: 0, Misses: 0
edb-> Hits: 14316, Late: 1392, Early: 0, Misses: 0
ede-> Hits: 18074, Late: 0, Early: 0, Misses: 0
ee0-> Hits: 18075, Late: 0, Early: 0, Misses: 0
eec-> Hits: 7675, Late: 2363, Early: 0, Misses: 0
eee-> Hits: 17563, Late: 0, Early: 0, Misses: 0
ef1-> Hits: 12527, Late: 0, Early: 0, Misses: 0
ef2-> Hits: 13185, Late: 2084, Early: 0, Misses: 0
ef5-> Hits: 18074, Late: 0, Early: 0, Misses: 0
efb-> Hits: 18074, Late: 0, Early: 0, Misses: 0
f01-> Hits: 60, Late: 18015, Early: 0, Misses: 0
f03-> Hits: 16999, Late: 0, Early: 0, Misses: 1075
f08-> Hits: 14703, Late: 0, Early: 0, Misses: 0
f0c-> Hits: 18072, Late: 0, Early: 0, Misses: 2
f0d-> Hits: 12691, Late: 1655, Early: 0, Misses: 0
f12-> Hits: 15036, Late: 2184, Early: 0, Misses: 0
f14-> Hits: 17432, Late: 0, Early: 0, Misses: 0
f15-> Hits: 17829, Late: 0, Early: 0, Misses: 0
f18-> Hits: 18074, Late: 0, Early: 0, Misses: 0
f19-> Hits: 18075, Late: 0, Early: 0, Misses: 0
f1d-> Hits: 16804, Late: 0, Early: 0, Misses: 0
f1e-> Hits: 18074, Late: 0, Early: 0, Misses: 0
f21-> Hits: 13458, Late: 2307, Early: 0, Misses: 0
f27-> Hits: 18075, Late: 0, Early: 0, Misses: 0
f2a-> Hits: 17689, Late: 0, Early: 0, Misses: 0
f2e-> Hits: 18074, Late: 0, Early: 0, Misses: 0
f31-> Hits: 12846, Late: 0, Early: 0, Misses: 0
f33-> Hits: 1826, Late: 0, Early: 0, Misses: 0
f36-> Hits: 13269, Late: 4805, Early: 0, Misses: 0
f37-> Hits: 798, Late: 17259, Early: 0, Misses: 0
f3b-> Hits: 18074, Late: 0, Early: 0, Misses: 0
f3d-> Hits: 18074, Late: 0, Early: 0, Misses: 0
f3e-> Hits: 19347, Late: 0, Early: 0, Misses: 0
f3f-> Hits: 16627, Late: 0, Early: 0, Misses: 0
f42-> Hits: 1, Late: 0, Early: 0, Misses: 0
f43-> Hits: 13120, Late: 326, Early: 0, Misses: 0
f46-> Hits: 18074, Late: 0, Early: 0, Misses: 0
f48-> Hits: 53588, Late: 0, Early: 0, Misses: 0
f4c-> Hits: 6, Late: 0, Early: 0, Misses: 0
f50-> Hits: 13410, Late: 1846, Early: 0, Misses: 0
f52-> Hits: 28110, Late: 3220, Early: 0, Misses: 0
f56-> Hits: 13682, Late: 2140, Early: 0, Misses: 0
f58-> Hits: 34897, Late: 636, Early: 0, Misses: 0
f5f-> Hits: 15567, Late: 0, Early: 0, Misses: 0
f60-> Hits: 2, Late: 0, Early: 0, Misses: 0
f61-> Hits: 18074, Late: 0, Early: 0, Misses: 0
f64-> Hits: 17122, Late: 0, Early: 0, Misses: 0
f65-> Hits: 16293, Late: 1726, Early: 0, Misses: 0
f6a-> Hits: 18074, Late: 0, Early: 0, Misses: 0
f6c-> Hits: 15826, Late: 2249, Early: 0, Misses: 0
f6d-> Hits: 12755, Late: 0, Early: 0, Misses: 0
f70-> Hits: 31418, Late: 2294, Early: 0, Misses: 0
f73-> Hits: 17615, Late: 18075, Early: 0, Misses: 0
f76-> Hits: 17547, Late: 0, Early: 0, Misses: 0
f79-> Hits: 18074, Late: 0, Early: 0, Misses: 0
f7d-> Hits: 28155, Late: 1789, Early: 0, Misses: 0
f7e-> Hits: 11521, Late: 2195, Early: 0, Misses: 0
f80-> Hits: 18074, Late: 0, Early: 0, Misses: 0
f83-> Hits: 71, Late: 18003, Early: 0, Misses: 0
f89-> Hits: 1190, Late: 16884, Early: 0, Misses: 0
f8c-> Hits: 18074, Late: 0, Early: 0, Misses: 0
f8d-> Hits: 18074, Late: 0, Early: 0, Misses: 0
f8f-> Hits: 44, Late: 18031, Early: 0, Misses: 0
f90-> Hits: 18074, Late: 0, Early: 0, Misses: 0
f92-> Hits: 17392, Late: 0, Early: 0, Misses: 0
f93-> Hits: 18074, Late: 0, Early: 0, Misses: 0
f94-> Hits: 4099, Late: 5815, Early: 0, Misses: 0
f95-> Hits: 18074, Late: 0, Early: 0, Misses: 0
f97-> Hits: 17767, Late: 2235, Early: 0, Misses: 0
f99-> Hits: 12493, Late: 1, Early: 0, Misses: 5580
f9a-> Hits: 30899, Late: 5249, Early: 0, Misses: 0
f9c-> Hits: 11999, Late: 958, Early: 0, Misses: 0
f9e-> Hits: 15258, Late: 458, Early: 0, Misses: 0
fa0-> Hits: 241, Late: 4514, Early: 0, Misses: 11292
fa2-> Hits: 18074, Late: 0, Early: 0, Misses: 0
fa4-> Hits: 1721, Late: 169, Early: 0, Misses: 0
fa5-> Hits: 17979, Late: 0, Early: 0, Misses: 0
fa6-> Hits: 224, Late: 4, Early: 0, Misses: 1132
fa7-> Hits: 1853, Late: 16221, Early: 0, Misses: 0
fa8-> Hits: 3704, Late: 0, Early: 0, Misses: 0
faa-> Hits: 18074, Late: 0, Early: 0, Misses: 0
fab-> Hits: 17631, Late: 21, Early: 0, Misses: 422
fac-> Hits: 17450, Late: 0, Early: 0, Misses: 0
fad-> Hits: 8288, Late: 0, Early: 0, Misses: 0
fb0-> Hits: 0, Late: 18060, Early: 0, Misses: 0
fb1-> Hits: 897, Late: 17177, Early: 0, Misses: 0
fb4-> Hits: 18458, Late: 0, Early: 0, Misses: 0
fb6-> Hits: 134, Late: 0, Early: 0, Misses: 0
fba-> Hits: 18074, Late: 0, Early: 0, Misses: 0
fbb-> Hits: 2054, Late: 16021, Early: 0, Misses: 0
fbe-> Hits: 18461, Late: 17002, Early: 0, Misses: 0
fbf-> Hits: 17451, Late: 0, Early: 0, Misses: 0
fc2-> Hits: 17703, Late: 0, Early: 0, Misses: 0
fc4-> Hits: 917, Late: 4140, Early: 0, Misses: 0
fc7-> Hits: 17084, Late: 0, Early: 0, Misses: 0
fc8-> Hits: 18074, Late: 0, Early: 0, Misses: 0
fcd-> Hits: 17961, Late: 0, Early: 0, Misses: 0
fcf-> Hits: 12751, Late: 368, Early: 0, Misses: 0
fd0-> Hits: 18074, Late: 0, Early: 0, Misses: 0
fd1-> Hits: 18074, Late: 0, Early: 0, Misses: 0
fd2-> Hits: 470, Late: 17604, Early: 0, Misses: 0
fd3-> Hits: 18073, Late: 2, Early: 0, Misses: 0
fd6-> Hits: 17762, Late: 0, Early: 0, Misses: 312
fd7-> Hits: 12719, Late: 2418, Early: 0, Misses: 0
fd8-> Hits: 13768, Late: 4306, Early: 0, Misses: 0
fda-> Hits: 17971, Late: 0, Early: 0, Misses: 0
fdd-> Hits: 7524, Late: 0, Early: 0, Misses: 0
fde-> Hits: 16911, Late: 0, Early: 0, Misses: 0
fe3-> Hits: 39687, Late: 0, Early: 0, Misses: 0
fe4-> Hits: 4644, Late: 2209, Early: 0, Misses: 2347
fe5-> Hits: 19062, Late: 17086, Early: 0, Misses: 0
fea-> Hits: 17902, Late: 0, Early: 0, Misses: 0
fec-> Hits: 18074, Late: 0, Early: 0, Misses: 0
fee-> Hits: 3496, Late: 2492, Early: 0, Misses: 0
ff0-> Hits: 17899, Late: 0, Early: 0, Misses: 0
ff1-> Hits: 17788, Late: 125, Early: 0, Misses: 161
ff2-> Hits: 9636, Late: 1572, Early: 0, Misses: 0
ff5-> Hits: 9802, Late: 0, Early: 0, Misses: 0
ff6-> Hits: 15873, Late: 0, Early: 0, Misses: 0
ff9-> Hits: 18097, Late: 18051, Early: 0, Misses: 0
ffb-> Hits: 253, Late: 0, Early: 0, Misses: 0
ffd-> Hits: 2367, Late: 2476, Early: 0, Misses: 0
ffe-> Hits: 17777, Late: 0, Early: 0, Misses: 297
fff-> Hits: 18074, Late: 0, Early: 0, Misses: 0
Total misses (from ip) 6379711
Total accesses (misses) 30361592 6379711
Pref: Addr 0 IP 0 Current 0
 All Calls: 7973601
 Critical Calls: 7973601
------------------
Depth Distribution
------------------
depth 0: 0
depth 1: 4921475
depth 2: 53863
depth 3: 99
depth 4: 16
depth 5: 7
depth 6: 3
depth 7: 2
depth 8: 0
depth 9: 0
depth 10: 0
depth 11: 0
depth 12: 0
depth 13: 0
depth 14: 0
depth 15: 0
depth 16: 0
depth 17: 0
depth 18: 0
depth 19: 0
depth 20: 0
depth 21: 0
depth 22: 0
depth 23: 0
depth 24: 0
depth 25: 0
depth 26: 0
depth 27: 0
depth 28: 0
depth 29: 0
Total: 4975465
-----------------------------
-----------------------------
	Captured at Filter
-----------------------------
depth 0: 0
depth 1: 89375
depth 2: 5820
depth 3: 10
depth 4: 4
depth 5: 3
depth 6: 0
depth 7: 0
depth 8: 0
depth 9: 0
depth 10: 0
depth 11: 0
depth 12: 0
depth 13: 0
depth 14: 0
depth 15: 0
depth 16: 0
depth 17: 0
depth 18: 0
depth 19: 0
depth 20: 0
depth 21: 0
depth 22: 0
depth 23: 0
depth 24: 0
depth 25: 0
depth 26: 0
depth 27: 0
depth 28: 0
depth 29: 0
-----------------------------
-----------------------------
		Lost at Page
-----------------------------
depth 0: 0
depth 1: 1268506
depth 2: 3111
depth 3: 17
depth 4: 6
depth 5: 4
depth 6: 3
depth 7: 0
depth 8: 0
depth 9: 0
depth 10: 0
depth 11: 0
depth 12: 0
depth 13: 0
depth 14: 0
depth 15: 0
depth 16: 0
depth 17: 0
depth 18: 0
depth 19: 0
depth 20: 0
depth 21: 0
depth 22: 0
depth 23: 0
depth 24: 0
depth 25: 0
depth 26: 0
depth 27: 0
depth 28: 0
depth 29: 0
-----------------------------
-----------------------------
	Lost due to PQ Size
-----------------------------
159692
-----------------------------
ST read accesses: 3953058
ST write accesses: 1578
PT read accesses: 42925866
PT write accesses: 4938281
FILTER read accesses: 6953775
FILTER write accesses: 382082
GHR read accesses: 4314970
GHR write accesses: 616881
GHR counter read accesses: 34828008
GHR counter write accesses: 3993144
ST tag read accesses: 1518410216
ST tag write accesses: 285001553

DRAM Statistics
 CHANNEL 0
 RQ ROW_BUFFER_HIT:      70439  ROW_BUFFER_MISS:      64434
 DBUS_CONGESTED:        138
 WQ ROW_BUFFER_HIT:       5815  ROW_BUFFER_MISS:      22156  FULL:          0

 AVG_CONGESTED_CYCLE: 4
 All warmup complete: 2
Channel 0 Bank busy for read cycles: 0
Channel 0 Bank busy for write cycles: 0
Channel 0
Rank 0
0banks busy for read cycles: 43586200
0banks busy for write cycles: 13417
1banks busy for read cycles: 6313360
1banks busy for write cycles: 1987071
2banks busy for read cycles: 1726069
2banks busy for write cycles: 587377
3banks busy for read cycles: 489909
3banks busy for write cycles: 236617
4banks busy for read cycles: 170479
4banks busy for write cycles: 115658
5banks busy for read cycles: 98740
5banks busy for write cycles: 63646
6banks busy for read cycles: 75198
6banks busy for write cycles: 36081
7banks busy for read cycles: 38629
7banks busy for write cycles: 12398
8banks busy for read cycles: 6942
8banks busy for write cycles: 2540

CPU 0 Branch Prediction Accuracy: 99.9878% MPKI: 0.00108 Average ROB Occupancy at Mispredict: 27.2222
Branch types
NOT_BRANCH: 49556927 99.1139%
BRANCH_DIRECT_JUMP: 54228 0.108456%
BRANCH_INDIRECT: 9038 0.018076%
BRANCH_CONDITIONAL: 271248 0.542496%
BRANCH_DIRECT_CALL: 54228 0.108456%
BRANCH_INDIRECT_CALL: 0 0%
BRANCH_RETURN: 54228 0.108456%
BRANCH_OTHER: 0 0%

DRAM PAGES: 1048576
Allocated PAGES: 4562
