Initialize SIGNATURE TABLE
ST_SET: 1
ST_WAY: 256
ST_TAG_BIT: 16
ST_TAG_MASK: ffff

Initialize PATTERN TABLE
PT_SET: 512
PT_WAY: 4
SIG_DELTA_BIT: 7
C_SIG_BIT: 4
C_DELTA_BIT: 4

Initialize PREFETCH FILTER
FILTER_SET: 1024

*** ChampSim Multicore Out-of-Order Simulator ***

Warmup Instructions: 50000000
Simulation Instructions: 50000000
Number of CPUs: 1
LLC sets: 2048
LLC ways: 16
Off-chip DRAM Size: 4096 MB Channels: 1 Width: 64-bit Data Rate: 6400 MT/s
CPU 0 runs ./tracer/traces/627.cam4_s-490B.champsimtrace.xz
.xz
CPU 0 Bimodal branch predictor
BTB has LRU replacement policy
ITLB has LRU replacement policy
DTLB has LRU replacement policy
STLB has LRU replacement policy
L1I has LRU replacement policy
CPU 0 L1D Berti prefetcher
L1D has LRU replacement policy
ST_WAYS: 256
PT_SETS: 512
L2C has LRU replacement policy
Initialize SHIP state
Assign rand_sets[0]: 454  LLC: 2048
rand_sets[0]: 454
Assign rand_sets[1]: 1662  LLC: 2048
rand_sets[1]: 1662
Assign rand_sets[2]: 1921  LLC: 2048
rand_sets[2]: 1921
Assign rand_sets[3]: 1131  LLC: 2048
rand_sets[3]: 1131
Assign rand_sets[4]: 331  LLC: 2048
rand_sets[4]: 331
Assign rand_sets[5]: 1531  LLC: 2048
rand_sets[5]: 1531
Assign rand_sets[6]: 482  LLC: 2048
rand_sets[6]: 482
Assign rand_sets[7]: 1275  LLC: 2048
rand_sets[7]: 1275
Assign rand_sets[8]: 1876  LLC: 2048
rand_sets[8]: 1876
Assign rand_sets[9]: 2038  LLC: 2048
rand_sets[9]: 2038
Assign rand_sets[10]: 701  LLC: 2048
rand_sets[10]: 701
Assign rand_sets[11]: 479  LLC: 2048
rand_sets[11]: 479
Assign rand_sets[12]: 892  LLC: 2048
rand_sets[12]: 892
Assign rand_sets[13]: 1820  LLC: 2048
rand_sets[13]: 1820
Assign rand_sets[14]: 1505  LLC: 2048
rand_sets[14]: 1505
Assign rand_sets[15]: 1159  LLC: 2048
rand_sets[15]: 1159
Assign rand_sets[16]: 513  LLC: 2048
rand_sets[16]: 513
Assign rand_sets[17]: 703  LLC: 2048
rand_sets[17]: 703
Assign rand_sets[18]: 561  LLC: 2048
rand_sets[18]: 561
Assign rand_sets[19]: 990  LLC: 2048
rand_sets[19]: 990
Assign rand_sets[20]: 342  LLC: 2048
rand_sets[20]: 342
Assign rand_sets[21]: 882  LLC: 2048
rand_sets[21]: 882
Assign rand_sets[22]: 15  LLC: 2048
rand_sets[22]: 15
Assign rand_sets[23]: 71  LLC: 2048
rand_sets[23]: 71
Assign rand_sets[24]: 1127  LLC: 2048
rand_sets[24]: 1127
Assign rand_sets[25]: 1382  LLC: 2048
rand_sets[25]: 1382
Assign rand_sets[26]: 647  LLC: 2048
rand_sets[26]: 647
Assign rand_sets[27]: 857  LLC: 2048
rand_sets[27]: 857
Assign rand_sets[28]: 1450  LLC: 2048
rand_sets[28]: 1450
Assign rand_sets[29]: 1160  LLC: 2048
rand_sets[29]: 1160
Assign rand_sets[30]: 1852  LLC: 2048
rand_sets[30]: 1852
Assign rand_sets[31]: 1881  LLC: 2048
rand_sets[31]: 1881
Assign rand_sets[32]: 1770  LLC: 2048
rand_sets[32]: 1770
Assign rand_sets[33]: 1622  LLC: 2048
rand_sets[33]: 1622
Assign rand_sets[34]: 275  LLC: 2048
rand_sets[34]: 275
Assign rand_sets[35]: 635  LLC: 2048
rand_sets[35]: 635
Assign rand_sets[36]: 466  LLC: 2048
rand_sets[36]: 466
Assign rand_sets[37]: 1413  LLC: 2048
rand_sets[37]: 1413
Assign rand_sets[38]: 417  LLC: 2048
rand_sets[38]: 417
Assign rand_sets[39]: 472  LLC: 2048
rand_sets[39]: 472
Assign rand_sets[40]: 1340  LLC: 2048
rand_sets[40]: 1340
Assign rand_sets[41]: 852  LLC: 2048
rand_sets[41]: 852
Assign rand_sets[42]: 1365  LLC: 2048
rand_sets[42]: 1365
Assign rand_sets[43]: 47  LLC: 2048
rand_sets[43]: 47
Assign rand_sets[44]: 823  LLC: 2048
rand_sets[44]: 823
Assign rand_sets[45]: 686  LLC: 2048
rand_sets[45]: 686
Assign rand_sets[46]: 1637  LLC: 2048
rand_sets[46]: 1637
Assign rand_sets[47]: 1115  LLC: 2048
rand_sets[47]: 1115
Assign rand_sets[48]: 986  LLC: 2048
rand_sets[48]: 986
Assign rand_sets[49]: 258  LLC: 2048
rand_sets[49]: 258
Assign rand_sets[50]: 633  LLC: 2048
rand_sets[50]: 633
Assign rand_sets[51]: 920  LLC: 2048
rand_sets[51]: 920
Assign rand_sets[52]: 204  LLC: 2048
rand_sets[52]: 204
Assign rand_sets[53]: 227  LLC: 2048
rand_sets[53]: 227
Assign rand_sets[54]: 1818  LLC: 2048
rand_sets[54]: 1818
Assign rand_sets[55]: 886  LLC: 2048
rand_sets[55]: 886
Assign rand_sets[56]: 1422  LLC: 2048
rand_sets[56]: 1422
Assign rand_sets[57]: 607  LLC: 2048
rand_sets[57]: 607
Assign rand_sets[58]: 217  LLC: 2048
rand_sets[58]: 217
Assign rand_sets[59]: 1945  LLC: 2048
rand_sets[59]: 1945
Assign rand_sets[60]: 143  LLC: 2048
rand_sets[60]: 143
Assign rand_sets[61]: 1311  LLC: 2048
rand_sets[61]: 1311
Assign rand_sets[62]: 319  LLC: 2048
rand_sets[62]: 319
Assign rand_sets[63]: 1846  LLC: 2048
rand_sets[63]: 1846
Assign rand_sets[64]: 238  LLC: 2048
rand_sets[64]: 238
Assign rand_sets[65]: 67  LLC: 2048
rand_sets[65]: 67
Assign rand_sets[66]: 1912  LLC: 2048
rand_sets[66]: 1912
Assign rand_sets[67]: 1613  LLC: 2048
rand_sets[67]: 1613
Assign rand_sets[68]: 1293  LLC: 2048
rand_sets[68]: 1293
Assign rand_sets[69]: 1018  LLC: 2048
rand_sets[69]: 1018
Assign rand_sets[70]: 1982  LLC: 2048
rand_sets[70]: 1982
Assign rand_sets[71]: 1702  LLC: 2048
rand_sets[71]: 1702
Assign rand_sets[72]: 1498  LLC: 2048
rand_sets[72]: 1498
Assign rand_sets[73]: 228  LLC: 2048
rand_sets[73]: 228
Assign rand_sets[74]: 1414  LLC: 2048
rand_sets[74]: 1414
Assign rand_sets[75]: 1166  LLC: 2048
rand_sets[75]: 1166
Assign rand_sets[76]: 732  LLC: 2048
rand_sets[76]: 732
Assign rand_sets[77]: 297  LLC: 2048
rand_sets[77]: 297
Assign rand_sets[78]: 1133  LLC: 2048
rand_sets[78]: 1133
Assign rand_sets[79]: 846  LLC: 2048
rand_sets[79]: 846
Assign rand_sets[80]: 767  LLC: 2048
rand_sets[80]: 767
Assign rand_sets[81]: 1878  LLC: 2048
rand_sets[81]: 1878
Assign rand_sets[82]: 993  LLC: 2048
rand_sets[82]: 993
Assign rand_sets[83]: 1392  LLC: 2048
rand_sets[83]: 1392
Assign rand_sets[84]: 1568  LLC: 2048
rand_sets[84]: 1568
Assign rand_sets[85]: 1787  LLC: 2048
rand_sets[85]: 1787
Assign rand_sets[86]: 399  LLC: 2048
rand_sets[86]: 399
Assign rand_sets[87]: 1201  LLC: 2048
rand_sets[87]: 1201
Assign rand_sets[88]: 856  LLC: 2048
rand_sets[88]: 856
Assign rand_sets[89]: 773  LLC: 2048
rand_sets[89]: 773
Assign rand_sets[90]: 1680  LLC: 2048
rand_sets[90]: 1680
Assign rand_sets[91]: 1477  LLC: 2048
rand_sets[91]: 1477
Assign rand_sets[92]: 9  LLC: 2048
rand_sets[92]: 9
Assign rand_sets[93]: 1500  LLC: 2048
rand_sets[93]: 1500
Assign rand_sets[94]: 851  LLC: 2048
rand_sets[94]: 851
Assign rand_sets[95]: 973  LLC: 2048
rand_sets[95]: 973
Assign rand_sets[96]: 938  LLC: 2048
rand_sets[96]: 938
Assign rand_sets[97]: 1851  LLC: 2048
rand_sets[97]: 1851
Assign rand_sets[98]: 1608  LLC: 2048
rand_sets[98]: 1608
Assign rand_sets[99]: 1945  LLC: 2048
Assign rand_sets[99]: 1106  LLC: 2048
rand_sets[99]: 1106
Assign rand_sets[100]: 979  LLC: 2048
rand_sets[100]: 979
Assign rand_sets[101]: 338  LLC: 2048
rand_sets[101]: 338
Assign rand_sets[102]: 1693  LLC: 2048
rand_sets[102]: 1693
Assign rand_sets[103]: 6  LLC: 2048
rand_sets[103]: 6
Assign rand_sets[104]: 671  LLC: 2048
rand_sets[104]: 671
Assign rand_sets[105]: 490  LLC: 2048
rand_sets[105]: 490
Assign rand_sets[106]: 1461  LLC: 2048
rand_sets[106]: 1461
Assign rand_sets[107]: 1730  LLC: 2048
rand_sets[107]: 1730
Assign rand_sets[108]: 1030  LLC: 2048
rand_sets[108]: 1030
Assign rand_sets[109]: 19  LLC: 2048
rand_sets[109]: 19
Assign rand_sets[110]: 920  LLC: 2048
Assign rand_sets[110]: 329  LLC: 2048
rand_sets[110]: 329
Assign rand_sets[111]: 1714  LLC: 2048
rand_sets[111]: 1714
Assign rand_sets[112]: 1  LLC: 2048
rand_sets[112]: 1
Assign rand_sets[113]: 1822  LLC: 2048
rand_sets[113]: 1822
Assign rand_sets[114]: 172  LLC: 2048
rand_sets[114]: 172
Assign rand_sets[115]: 1586  LLC: 2048
rand_sets[115]: 1586
Assign rand_sets[116]: 648  LLC: 2048
rand_sets[116]: 648
Assign rand_sets[117]: 1329  LLC: 2048
rand_sets[117]: 1329
Assign rand_sets[118]: 668  LLC: 2048
rand_sets[118]: 668
Assign rand_sets[119]: 1874  LLC: 2048
rand_sets[119]: 1874
Assign rand_sets[120]: 70  LLC: 2048
rand_sets[120]: 70
Assign rand_sets[121]: 661  LLC: 2048
rand_sets[121]: 661
Assign rand_sets[122]: 1649  LLC: 2048
rand_sets[122]: 1649
Assign rand_sets[123]: 1590  LLC: 2048
rand_sets[123]: 1590
Assign rand_sets[124]: 911  LLC: 2048
rand_sets[124]: 911
Assign rand_sets[125]: 1367  LLC: 2048
rand_sets[125]: 1367
Assign rand_sets[126]: 1782  LLC: 2048
rand_sets[126]: 1782
Assign rand_sets[127]: 569  LLC: 2048
rand_sets[127]: 569
Assign rand_sets[128]: 1309  LLC: 2048
rand_sets[128]: 1309
Assign rand_sets[129]: 534  LLC: 2048
rand_sets[129]: 534
Assign rand_sets[130]: 1274  LLC: 2048
rand_sets[130]: 1274
Assign rand_sets[131]: 904  LLC: 2048
rand_sets[131]: 904
Assign rand_sets[132]: 1908  LLC: 2048
rand_sets[132]: 1908
Assign rand_sets[133]: 245  LLC: 2048
rand_sets[133]: 245
Assign rand_sets[134]: 1688  LLC: 2048
rand_sets[134]: 1688
Assign rand_sets[135]: 1660  LLC: 2048
rand_sets[135]: 1660
Assign rand_sets[136]: 1303  LLC: 2048
rand_sets[136]: 1303
Assign rand_sets[137]: 1628  LLC: 2048
rand_sets[137]: 1628
Assign rand_sets[138]: 1857  LLC: 2048
rand_sets[138]: 1857
Assign rand_sets[139]: 187  LLC: 2048
rand_sets[139]: 187
Assign rand_sets[140]: 1389  LLC: 2048
rand_sets[140]: 1389
Assign rand_sets[141]: 881  LLC: 2048
rand_sets[141]: 881
Assign rand_sets[142]: 1166  LLC: 2048
Assign rand_sets[142]: 1039  LLC: 2048
rand_sets[142]: 1039
Assign rand_sets[143]: 1136  LLC: 2048
rand_sets[143]: 1136
Assign rand_sets[144]: 601  LLC: 2048
rand_sets[144]: 601
Assign rand_sets[145]: 967  LLC: 2048
rand_sets[145]: 967
Assign rand_sets[146]: 769  LLC: 2048
rand_sets[146]: 769
Assign rand_sets[147]: 283  LLC: 2048
rand_sets[147]: 283
Assign rand_sets[148]: 559  LLC: 2048
rand_sets[148]: 559
Assign rand_sets[149]: 1075  LLC: 2048
rand_sets[149]: 1075
Assign rand_sets[150]: 829  LLC: 2048
rand_sets[150]: 829
Assign rand_sets[151]: 1681  LLC: 2048
rand_sets[151]: 1681
Assign rand_sets[152]: 1728  LLC: 2048
rand_sets[152]: 1728
Assign rand_sets[153]: 541  LLC: 2048
rand_sets[153]: 541
Assign rand_sets[154]: 421  LLC: 2048
rand_sets[154]: 421
Assign rand_sets[155]: 1037  LLC: 2048
rand_sets[155]: 1037
Assign rand_sets[156]: 13  LLC: 2048
rand_sets[156]: 13
Assign rand_sets[157]: 1707  LLC: 2048
rand_sets[157]: 1707
Assign rand_sets[158]: 1075  LLC: 2048
Assign rand_sets[158]: 1933  LLC: 2048
rand_sets[158]: 1933
Assign rand_sets[159]: 1406  LLC: 2048
rand_sets[159]: 1406
Assign rand_sets[160]: 94  LLC: 2048
rand_sets[160]: 94
Assign rand_sets[161]: 1423  LLC: 2048
rand_sets[161]: 1423
Assign rand_sets[162]: 1854  LLC: 2048
rand_sets[162]: 1854
Assign rand_sets[163]: 230  LLC: 2048
rand_sets[163]: 230
Assign rand_sets[164]: 104  LLC: 2048
rand_sets[164]: 104
Assign rand_sets[165]: 1652  LLC: 2048
rand_sets[165]: 1652
Assign rand_sets[166]: 1446  LLC: 2048
rand_sets[166]: 1446
Assign rand_sets[167]: 1338  LLC: 2048
rand_sets[167]: 1338
Assign rand_sets[168]: 177  LLC: 2048
rand_sets[168]: 177
Assign rand_sets[169]: 195  LLC: 2048
rand_sets[169]: 195
Assign rand_sets[170]: 1171  LLC: 2048
rand_sets[170]: 1171
Assign rand_sets[171]: 1297  LLC: 2048
rand_sets[171]: 1297
Assign rand_sets[172]: 1704  LLC: 2048
rand_sets[172]: 1704
Assign rand_sets[173]: 100  LLC: 2048
rand_sets[173]: 100
Assign rand_sets[174]: 711  LLC: 2048
rand_sets[174]: 711
Assign rand_sets[175]: 1243  LLC: 2048
rand_sets[175]: 1243
Assign rand_sets[176]: 1738  LLC: 2048
rand_sets[176]: 1738
Assign rand_sets[177]: 1504  LLC: 2048
rand_sets[177]: 1504
Assign rand_sets[178]: 96  LLC: 2048
rand_sets[178]: 96
Assign rand_sets[179]: 1249  LLC: 2048
rand_sets[179]: 1249
Assign rand_sets[180]: 1267  LLC: 2048
rand_sets[180]: 1267
Assign rand_sets[181]: 1727  LLC: 2048
rand_sets[181]: 1727
Assign rand_sets[182]: 1545  LLC: 2048
rand_sets[182]: 1545
Assign rand_sets[183]: 1792  LLC: 2048
rand_sets[183]: 1792
Assign rand_sets[184]: 1383  LLC: 2048
rand_sets[184]: 1383
Assign rand_sets[185]: 1954  LLC: 2048
rand_sets[185]: 1954
Assign rand_sets[186]: 739  LLC: 2048
rand_sets[186]: 739
Assign rand_sets[187]: 1061  LLC: 2048
rand_sets[187]: 1061
Assign rand_sets[188]: 672  LLC: 2048
rand_sets[188]: 672
Assign rand_sets[189]: 1057  LLC: 2048
rand_sets[189]: 1057
Assign rand_sets[190]: 1329  LLC: 2048
Assign rand_sets[190]: 1415  LLC: 2048
rand_sets[190]: 1415
Assign rand_sets[191]: 981  LLC: 2048
rand_sets[191]: 981
Assign rand_sets[192]: 98  LLC: 2048
rand_sets[192]: 98
Assign rand_sets[193]: 453  LLC: 2048
rand_sets[193]: 453
Assign rand_sets[194]: 1448  LLC: 2048
rand_sets[194]: 1448
Assign rand_sets[195]: 79  LLC: 2048
rand_sets[195]: 79
Assign rand_sets[196]: 126  LLC: 2048
rand_sets[196]: 126
Assign rand_sets[197]: 1582  LLC: 2048
rand_sets[197]: 1582
Assign rand_sets[198]: 1289  LLC: 2048
rand_sets[198]: 1289
Assign rand_sets[199]: 875  LLC: 2048
rand_sets[199]: 875
Assign rand_sets[200]: 404  LLC: 2048
rand_sets[200]: 404
Assign rand_sets[201]: 415  LLC: 2048
rand_sets[201]: 415
Assign rand_sets[202]: 1712  LLC: 2048
rand_sets[202]: 1712
Assign rand_sets[203]: 1389  LLC: 2048
Assign rand_sets[203]: 169  LLC: 2048
rand_sets[203]: 169
Assign rand_sets[204]: 158  LLC: 2048
rand_sets[204]: 158
Assign rand_sets[205]: 90  LLC: 2048
rand_sets[205]: 90
Assign rand_sets[206]: 1291  LLC: 2048
rand_sets[206]: 1291
Assign rand_sets[207]: 838  LLC: 2048
rand_sets[207]: 838
Assign rand_sets[208]: 1904  LLC: 2048
rand_sets[208]: 1904
Assign rand_sets[209]: 640  LLC: 2048
rand_sets[209]: 640
Assign rand_sets[210]: 1462  LLC: 2048
rand_sets[210]: 1462
Assign rand_sets[211]: 1487  LLC: 2048
rand_sets[211]: 1487
Assign rand_sets[212]: 1863  LLC: 2048
rand_sets[212]: 1863
Assign rand_sets[213]: 1036  LLC: 2048
rand_sets[213]: 1036
Assign rand_sets[214]: 1702  LLC: 2048
Assign rand_sets[214]: 933  LLC: 2048
rand_sets[214]: 933
Assign rand_sets[215]: 554  LLC: 2048
rand_sets[215]: 554
Assign rand_sets[216]: 1496  LLC: 2048
rand_sets[216]: 1496
Assign rand_sets[217]: 1708  LLC: 2048
rand_sets[217]: 1708
Assign rand_sets[218]: 1275  LLC: 2048
Assign rand_sets[218]: 416  LLC: 2048
rand_sets[218]: 416
Assign rand_sets[219]: 491  LLC: 2048
rand_sets[219]: 491
Assign rand_sets[220]: 183  LLC: 2048
rand_sets[220]: 183
Assign rand_sets[221]: 1657  LLC: 2048
rand_sets[221]: 1657
Assign rand_sets[222]: 1060  LLC: 2048
rand_sets[222]: 1060
Assign rand_sets[223]: 626  LLC: 2048
rand_sets[223]: 626
Assign rand_sets[224]: 1315  LLC: 2048
rand_sets[224]: 1315
Assign rand_sets[225]: 1682  LLC: 2048
rand_sets[225]: 1682
Assign rand_sets[226]: 1352  LLC: 2048
rand_sets[226]: 1352
Assign rand_sets[227]: 1152  LLC: 2048
rand_sets[227]: 1152
Assign rand_sets[228]: 965  LLC: 2048
rand_sets[228]: 965
Assign rand_sets[229]: 1190  LLC: 2048
rand_sets[229]: 1190
Assign rand_sets[230]: 1191  LLC: 2048
rand_sets[230]: 1191
Assign rand_sets[231]: 645  LLC: 2048
rand_sets[231]: 645
Assign rand_sets[232]: 695  LLC: 2048
rand_sets[232]: 695
Assign rand_sets[233]: 1495  LLC: 2048
rand_sets[233]: 1495
Assign rand_sets[234]: 1932  LLC: 2048
rand_sets[234]: 1932
Assign rand_sets[235]: 656  LLC: 2048
rand_sets[235]: 656
Assign rand_sets[236]: 1508  LLC: 2048
rand_sets[236]: 1508
Assign rand_sets[237]: 939  LLC: 2048
rand_sets[237]: 939
Assign rand_sets[238]: 355  LLC: 2048
rand_sets[238]: 355
Assign rand_sets[239]: 1092  LLC: 2048
rand_sets[239]: 1092
Assign rand_sets[240]: 850  LLC: 2048
rand_sets[240]: 850
Assign rand_sets[241]: 102  LLC: 2048
rand_sets[241]: 102
Assign rand_sets[242]: 1763  LLC: 2048
rand_sets[242]: 1763
Assign rand_sets[243]: 668  LLC: 2048
Assign rand_sets[243]: 51  LLC: 2048
rand_sets[243]: 51
Assign rand_sets[244]: 1317  LLC: 2048
rand_sets[244]: 1317
Assign rand_sets[245]: 2041  LLC: 2048
rand_sets[245]: 2041
Assign rand_sets[246]: 1374  LLC: 2048
rand_sets[246]: 1374
Assign rand_sets[247]: 682  LLC: 2048
rand_sets[247]: 682
Assign rand_sets[248]: 1466  LLC: 2048
rand_sets[248]: 1466
Assign rand_sets[249]: 1139  LLC: 2048
rand_sets[249]: 1139
Assign rand_sets[250]: 1632  LLC: 2048
rand_sets[250]: 1632
Assign rand_sets[251]: 1117  LLC: 2048
rand_sets[251]: 1117
Assign rand_sets[252]: 1611  LLC: 2048
rand_sets[252]: 1611
Assign rand_sets[253]: 1905  LLC: 2048
rand_sets[253]: 1905
Assign rand_sets[254]: 1662  LLC: 2048
Assign rand_sets[254]: 446  LLC: 2048
rand_sets[254]: 446
Assign rand_sets[255]: 1705  LLC: 2048
rand_sets[255]: 1705
Heartbeat CPU 0 instructions: 10000002 cycles: 2951039 heartbeat IPC: 3.38864 cumulative IPC: 3.38864 (Simulation time: 0 hr 0 min 28 sec) 
Heartbeat CPU 0 instructions: 20000002 cycles: 5890379 heartbeat IPC: 3.40212 cumulative IPC: 3.39537 (Simulation time: 0 hr 0 min 55 sec) 
Heartbeat CPU 0 instructions: 30000003 cycles: 8814884 heartbeat IPC: 3.41938 cumulative IPC: 3.40333 (Simulation time: 0 hr 1 min 29 sec) 
Heartbeat CPU 0 instructions: 40000000 cycles: 11754736 heartbeat IPC: 3.40153 cumulative IPC: 3.40288 (Simulation time: 0 hr 2 min 13 sec) 
Heartbeat CPU 0 instructions: 50000002 cycles: 14690842 heartbeat IPC: 3.40587 cumulative IPC: 3.40348 (Simulation time: 0 hr 2 min 56 sec) 

Warmup complete CPU 0 instructions: 50000002 cycles: 14690842 (Simulation time: 0 hr 2 min 56 sec) 

Heartbeat CPU 0 instructions: 60000002 cycles: 29590557 heartbeat IPC: 0.671154 cumulative IPC: 0.671154 (Simulation time: 0 hr 4 min 2 sec) 
Heartbeat CPU 0 instructions: 70000000 cycles: 44041086 heartbeat IPC: 0.692016 cumulative IPC: 0.681425 (Simulation time: 0 hr 5 min 4 sec) 
Heartbeat CPU 0 instructions: 80000003 cycles: 58862588 heartbeat IPC: 0.674696 cumulative IPC: 0.679167 (Simulation time: 0 hr 6 min 18 sec) 
Heartbeat CPU 0 instructions: 90000002 cycles: 73448493 heartbeat IPC: 0.685593 cumulative IPC: 0.680762 (Simulation time: 0 hr 7 min 37 sec) 
Heartbeat CPU 0 instructions: 100000000 cycles: 88401861 heartbeat IPC: 0.668746 cumulative IPC: 0.678325 (Simulation time: 0 hr 8 min 59 sec) 
Finished CPU 0 instructions: 50000000 cycles: 73711024 cumulative IPC: 0.678325 (Simulation time: 0 hr 8 min 59 sec) 

ChampSim completed all CPUs

Region of Interest Statistics

CPU 0 cumulative IPC: 0.678325 instructions: 50000000 cycles: 73711024
ITLB TOTAL     ACCESS:    7669920  HIT:    7669920  MISS:          0  HIT %:        100  MISS %:          0   MPKI: 0
ITLB LOAD TRANSLATION ACCESS:    7669920  HIT:    7669920  MISS:          0  HIT %:        100  MISS %:          0   MPKI: 0
ITLB PREFETCH  REQUESTED:          0  ISSUED:          0  USEFUL:          0  USELESS:          0
ITLB USEFUL LOAD PREFETCHES:          0 PREFETCH ISSUED TO LOWER LEVEL:          0  ACCURACY: -nan
ITLB TIMELY PREFETCHES:          0 LATE PREFETCHES: 0 DROPPED PREFETCHES: 0
ITLB PREFETCHES SAME FILL-ORIGIN LEVEL: 0 DIFFERENT FILL-ORIGIN LEVEL: 0
ITLB AVERAGE MISS LATENCY: -nan cycles
ITLB RQ	ACCESS:    9210455	FORWARD:          0	MERGED:    1540536	TO_CACHE:    7669919

DTLB TOTAL     ACCESS:    8244827  HIT:    8229086  MISS:      15741  HIT %:    99.8091  MISS %:    0.19092   MPKI: 0.31482
DTLB LOAD TRANSLATION ACCESS:    8244827  HIT:    8229086  MISS:      15741  HIT %:    99.8091  MISS %:    0.19092   MPKI: 0.31482
DTLB PREFETCH  REQUESTED:          0  ISSUED:          0  USEFUL:          0  USELESS:          0
DTLB USEFUL LOAD PREFETCHES:          0 PREFETCH ISSUED TO LOWER LEVEL:          0  ACCURACY: -nan
DTLB TIMELY PREFETCHES:          0 LATE PREFETCHES: 0 DROPPED PREFETCHES: 0
DTLB PREFETCHES SAME FILL-ORIGIN LEVEL: 0 DIFFERENT FILL-ORIGIN LEVEL: 0
DTLB AVERAGE MISS LATENCY: 15.3791 cycles
DTLB RQ	ACCESS:    9244248	FORWARD:          0	MERGED:     996833	TO_CACHE:    8247415

STLB TOTAL     ACCESS:    4104838  HIT:    4104073  MISS:        765  HIT %:    99.9814  MISS %:  0.0186365   MPKI: 0.0153
STLB LOAD TRANSLATION ACCESS:      15741  HIT:      14977  MISS:        764  HIT %:    95.1464  MISS %:    4.85357   MPKI: 0.01528
STLB TRANSLATION FROM L1D PREFETCHER ACCESS:    4089097  HIT:    4089096  MISS:          1  HIT %:        100  MISS %: 2.44553e-05   MPKI: 2e-05
STLB PREFETCH  REQUESTED:          0  ISSUED:          0  USEFUL:          1  USELESS:          0
STLB USEFUL LOAD PREFETCHES:          1 PREFETCH ISSUED TO LOWER LEVEL:          0  ACCURACY: inf
STLB TIMELY PREFETCHES:          1 LATE PREFETCHES: 141 DROPPED PREFETCHES: 9815
STLB PREFETCHES SAME FILL-ORIGIN LEVEL: 0 DIFFERENT FILL-ORIGIN LEVEL: 0
STLB AVERAGE MISS LATENCY: 1.40951e+06 cycles
STLB RQ	ACCESS:    4787595	FORWARD:          0	MERGED:     671598	TO_CACHE:    4115997

STLB Hit, L1D data hit: 0
STLB Hit, L2C data hit: 0
STLB Hit, LLC data hit: 0
STLB Hit, LLC data miss: 0
STLB STLB hints to L2: 0
L1D TOTAL     ACCESS:   12834708  HIT:   11914177  MISS:     920531  HIT %:    92.8278  MISS %:     7.1722   MPKI: 18.4106
L1D LOAD      ACCESS:    5981766  HIT:    5939136  MISS:      42630  HIT %:    99.2873  MISS %:   0.712666   MPKI: 0.8526
L1D RFO       ACCESS:    2361325  HIT:    2084212  MISS:     277113  HIT %:    88.2645  MISS %:    11.7355   MPKI: 5.54226
L1D PREFETCH  ACCESS:    4491617  HIT:    3890829  MISS:     600788  HIT %:    86.6242  MISS %:    13.3758   MPKI: 12.0158
AGUS PREFETCH L1 MISS: 0
L1D PREFETCH  REQUESTED:    9823760  ISSUED:    9823760  USEFUL:     589687  USELESS:      11016
L1D USEFUL LOAD PREFETCHES:     589687 PREFETCH ISSUED TO LOWER LEVEL:     615059  ACCURACY: 95.8749
L1D TIMELY PREFETCHES:     589687 LATE PREFETCHES: 13466 DROPPED PREFETCHES: 11387
L1D PREFETCHES SAME FILL-ORIGIN LEVEL: 615059 DIFFERENT FILL-ORIGIN LEVEL: 0
L1D AVERAGE MISS LATENCY: 699508 cycles
L1D RQ	ACCESS:    8052321	FORWARD:          0	MERGED:    2047943	TO_CACHE:    6003395
L1D WQ	ACCESS:    3329301	FORWARD:       1023	MERGED:      88448	TO_CACHE:    3240853
L1D PQ	ACCESS:    5051906	FORWARD:          0	MERGED:     280012	TO_CACHE:    4771854

L1D UNIQUE REGIONS ACCESSED: 0
L1D REGIONS CONFLICTS: 0
L1D Cross Page Prefetch Requests: 0
L1D Same Page Prefetch Requests: 9607350
L1D ROI Sum of L1D PQ occupancy: 65652562
L1D PREFETCHES PUSHED FROM L2C: 0
L1I TOTAL     ACCESS:    9209772  HIT:    9208549  MISS:       1223  HIT %:    99.9867  MISS %:  0.0132794   MPKI: 0.02446
L1I LOAD      ACCESS:    9209772  HIT:    9208549  MISS:       1223  HIT %:    99.9867  MISS %:  0.0132794   MPKI: 0.02446
L1I PREFETCH  REQUESTED:          0  ISSUED:          0  USEFUL:          0  USELESS:          0
L1I USEFUL LOAD PREFETCHES:          0 PREFETCH ISSUED TO LOWER LEVEL:          0  ACCURACY: -nan
L1I TIMELY PREFETCHES:          0 LATE PREFETCHES: 0 DROPPED PREFETCHES: 0
L1I PREFETCHES SAME FILL-ORIGIN LEVEL: 0 DIFFERENT FILL-ORIGIN LEVEL: 0
L1I AVERAGE MISS LATENCY: 229.839 cycles
L1I RQ	ACCESS:   12543097	FORWARD:          0	MERGED:    3332642	TO_CACHE:    9210455

BTB TOTAL     ACCESS:    4740034  HIT:    4737243  MISS:       2791  HIT %:    99.9411  MISS %:  0.0588814   MPKI: 0.05582
BTB BRANCH_DIRECT_JUMP	ACCESS:     218937  HIT:     218905  MISS:         32
BTB BRANCH_INDIRECT	ACCESS:        883  HIT:        882  MISS:          1
BTB BRANCH_CONDITIONAL	ACCESS:    4504405  HIT:    4504150  MISS:        255
BTB BRANCH_DIRECT_CALL	ACCESS:       7904  HIT:       7786  MISS:        118
BTB BRANCH_INDIRECT_CALL	ACCESS:          0  HIT:          0  MISS:          0
BTB BRANCH_RETURN	ACCESS:       7905  HIT:       5520  MISS:       2385
BTB BRANCH_OTHER ACCESS:           0  HIT:          0  MISS:          0

L2C TOTAL     ACCESS:    3378358  HIT:    2797303  MISS:     581055  HIT %:    82.8007  MISS %:    17.1993   MPKI: 11.6211
L2C LOAD      ACCESS:      30387  HIT:      12387  MISS:      18000  HIT %:    40.7641  MISS %:    59.2359   MPKI: 0.36
L2C DATA LOAD MPKI: 0.33554
L2C INSTRUCTION LOAD MPKI: 0.02446
L2C RFO       ACCESS:     277106  HIT:      15412  MISS:     261694  HIT %:    5.56177  MISS %:    94.4382   MPKI: 5.23388
L2C PREFETCH  ACCESS:    2671112  HIT:    2370340  MISS:     300772  HIT %:    88.7398  MISS %:    11.2602   MPKI: 6.01544
AGUS PREFETCH L1 MISS: 0
L2C DATA PREFETCH MPKI: 6.01544
L2C INSTRUCTION PREFETCH MPKI: 0
L2C WRITEBACK ACCESS:     389032  HIT:     388581  MISS:        451  HIT %:    99.8841  MISS %:   0.115929   MPKI: 0.00902
L2C LOAD TRANSLATION ACCESS:        764  HIT:        723  MISS:         41  HIT %:    94.6335  MISS %:    5.36649   MPKI: 0.00082
L2C TRANSLATION FROM L1D PREFETCHER ACCESS:       9957  HIT:       9860  MISS:         97  HIT %:    99.0258  MISS %:   0.974189   MPKI: 0.00194
L2C PREFETCH  REQUESTED:    3210548  ISSUED:    3148577  USEFUL:      12014  USELESS:     289031
L2C USEFUL LOAD PREFETCHES:      12014 PREFETCH ISSUED TO LOWER LEVEL:    1312190  ACCURACY: 0.915569
L2C TIMELY PREFETCHES:      12014 LATE PREFETCHES: 66 DROPPED PREFETCHES: 0
L2C PREFETCHES SAME FILL-ORIGIN LEVEL: 76730 DIFFERENT FILL-ORIGIN LEVEL: 1011352
L2C AVERAGE MISS LATENCY: 102.25 cycles
L2C RQ	ACCESS:     318214	FORWARD:          0	MERGED:          0	TO_CACHE:     318214
L2C WQ	ACCESS:     389032	FORWARD:          0	MERGED:          0	TO_CACHE:     389032
L2C PQ	ACCESS:    3762838	FORWARD:          0	MERGED:      70388	TO_CACHE:    3692450

L2C Instructions Evicting Data 1223
L2C Translations Evicting Data 138
L2C Data Evicting Data 577890
L2C Instructions Evicting Instructions 0
L2C Translations Evicting Instructions 0
L2C Data Evicting Instructions 1215
L2C Instructions Evicting Translations 0
L2C Translations Evicting Translations 0
L2C Data Evicting Translations 138
L2C Dense regions hint from L2: 0
PSCL5 TOTAL     ACCESS:      10721  HIT:      10721  MISS:          0  HIT %:        100  MISS %:          0   MPKI: 0
PSCL5 LOAD TRANSLATION ACCESS:        764  HIT:        764  MISS:          0  HIT %:        100  MISS %:          0   MPKI: 0
PSCL5 TRANSLATION FROM L1D PREFETCHER ACCESS:       9957  HIT:       9957  MISS:          0  HIT %:        100  MISS %:          0   MPKI: 0
PSCL5 PREFETCH  REQUESTED:          0  ISSUED:          0  USEFUL:          0  USELESS:          0
PSCL5 USEFUL LOAD PREFETCHES:          0 PREFETCH ISSUED TO LOWER LEVEL:          0  ACCURACY: -nan
PSCL5 TIMELY PREFETCHES:          0 LATE PREFETCHES: 0 DROPPED PREFETCHES: 0
PSCL5 PREFETCHES SAME FILL-ORIGIN LEVEL: 0 DIFFERENT FILL-ORIGIN LEVEL: 0

PSCL4 TOTAL     ACCESS:      10721  HIT:      10721  MISS:          0  HIT %:        100  MISS %:          0   MPKI: 0
PSCL4 LOAD TRANSLATION ACCESS:        764  HIT:        764  MISS:          0  HIT %:        100  MISS %:          0   MPKI: 0
PSCL4 TRANSLATION FROM L1D PREFETCHER ACCESS:       9957  HIT:       9957  MISS:          0  HIT %:        100  MISS %:          0   MPKI: 0
PSCL4 PREFETCH  REQUESTED:          0  ISSUED:          0  USEFUL:          0  USELESS:          0
PSCL4 USEFUL LOAD PREFETCHES:          0 PREFETCH ISSUED TO LOWER LEVEL:          0  ACCURACY: -nan
PSCL4 TIMELY PREFETCHES:          0 LATE PREFETCHES: 0 DROPPED PREFETCHES: 0
PSCL4 PREFETCHES SAME FILL-ORIGIN LEVEL: 0 DIFFERENT FILL-ORIGIN LEVEL: 0

PSCL3 TOTAL     ACCESS:      10721  HIT:      10721  MISS:          0  HIT %:        100  MISS %:          0   MPKI: 0
PSCL3 LOAD TRANSLATION ACCESS:        764  HIT:        764  MISS:          0  HIT %:        100  MISS %:          0   MPKI: 0
PSCL3 TRANSLATION FROM L1D PREFETCHER ACCESS:       9957  HIT:       9957  MISS:          0  HIT %:        100  MISS %:          0   MPKI: 0
PSCL3 PREFETCH  REQUESTED:          0  ISSUED:          0  USEFUL:          0  USELESS:          0
PSCL3 USEFUL LOAD PREFETCHES:          0 PREFETCH ISSUED TO LOWER LEVEL:          0  ACCURACY: -nan
PSCL3 TIMELY PREFETCHES:          0 LATE PREFETCHES: 0 DROPPED PREFETCHES: 0
PSCL3 PREFETCHES SAME FILL-ORIGIN LEVEL: 0 DIFFERENT FILL-ORIGIN LEVEL: 0

PSCL2 TOTAL     ACCESS:      10718  HIT:      10716  MISS:          2  HIT %:    99.9813  MISS %:  0.0186602   MPKI: 4e-05
PSCL2 LOAD TRANSLATION ACCESS:        764  HIT:        762  MISS:          2  HIT %:    99.7382  MISS %:    0.26178   MPKI: 4e-05
PSCL2 TRANSLATION FROM L1D PREFETCHER ACCESS:       9954  HIT:       9954  MISS:          0  HIT %:        100  MISS %:          0   MPKI: 0
PSCL2 PREFETCH  REQUESTED:          0  ISSUED:          0  USEFUL:          0  USELESS:          0
PSCL2 USEFUL LOAD PREFETCHES:          0 PREFETCH ISSUED TO LOWER LEVEL:          0  ACCURACY: -nan
PSCL2 TIMELY PREFETCHES:          0 LATE PREFETCHES: 0 DROPPED PREFETCHES: 0
PSCL2 PREFETCHES SAME FILL-ORIGIN LEVEL: 0 DIFFERENT FILL-ORIGIN LEVEL: 0

LLC TOTAL     ACCESS:    1792705  HIT:    1534758  MISS:     257947  HIT %:    85.6113  MISS %:    14.3887   MPKI: 5.15894
LLC LOAD      ACCESS:      17934  HIT:      11849  MISS:       6085  HIT %:      66.07  MISS %:      33.93   MPKI: 0.1217
LLC RFO       ACCESS:     261694  HIT:     146025  MISS:     115669  HIT %:    55.7999  MISS %:    44.2001   MPKI: 2.31338
LLC PREFETCH  ACCESS:    1204400  HIT:    1101840  MISS:     102560  HIT %:    91.4846  MISS %:    8.51544   MPKI: 2.0512
AGUS PREFETCH L1 MISS: 0
LLC WRITEBACK ACCESS:     308539  HIT:     275042  MISS:      33497  HIT %:    89.1433  MISS %:    10.8567   MPKI: 0.66994
LLC LOAD TRANSLATION ACCESS:         41  HIT:          1  MISS:         40  HIT %:    2.43902  MISS %:     97.561   MPKI: 0.0008
LLC TRANSLATION FROM L1D PREFETCHER ACCESS:         97  HIT:          1  MISS:         96  HIT %:    1.03093  MISS %:    98.9691   MPKI: 0.00192
LLC PREFETCH  REQUESTED:          0  ISSUED:          0  USEFUL:      22091  USELESS:      85258
LLC USEFUL LOAD PREFETCHES:      22091 PREFETCH ISSUED TO LOWER LEVEL:     104139  ACCURACY: 21.213
LLC TIMELY PREFETCHES:      22091 LATE PREFETCHES: 1579 DROPPED PREFETCHES: 0
LLC PREFETCHES SAME FILL-ORIGIN LEVEL: 81054 DIFFERENT FILL-ORIGIN LEVEL: 0
LLC AVERAGE MISS LATENCY: 204.578 cycles
LLC RQ	ACCESS:     279766	FORWARD:          0	MERGED:          0	TO_CACHE:     279766
LLC WQ	ACCESS:     308539	FORWARD:         29	MERGED:          0	TO_CACHE:     308539
LLC PQ	ACCESS:    1312190	FORWARD:          0	MERGED:      13784	TO_CACHE:    1298377

LLC Dense regions hint to LLC: 0

RAW hits: 10728
Loads Generated: 8063050
Loads sent to L1D: 8052321
Stores Generated: 3329293
Stores sent to L1D: 3329301
Major fault: 0 Minor fault: 2350
Allocated PAGES: 2350
CPU 0 L1D berti prefetcher final stats
5-> Hits: 0, Late: 5, Early: 0, Misses: 0
6-> Hits: 558, Late: 0, Early: 0, Misses: 0
9-> Hits: 564, Late: 0, Early: 0, Misses: 0
f-> Hits: 474, Late: 0, Early: 0, Misses: 0
15-> Hits: 1739, Late: 0, Early: 0, Misses: 0
17-> Hits: 1, Late: 0, Early: 0, Misses: 6
1b-> Hits: 471, Late: 0, Early: 0, Misses: 0
20-> Hits: 247, Late: 18, Early: 0, Misses: 154
22-> Hits: 0, Late: 5, Early: 0, Misses: 0
23-> Hits: 0, Late: 475, Early: 0, Misses: 0
28-> Hits: 430, Late: 2, Early: 0, Misses: 0
2b-> Hits: 269, Late: 0, Early: 0, Misses: 185
2c-> Hits: 53, Late: 0, Early: 0, Misses: 0
2d-> Hits: 248, Late: 0, Early: 0, Misses: 0
2e-> Hits: 475, Late: 0, Early: 0, Misses: 0
2f-> Hits: 158, Late: 61, Early: 0, Misses: 0
30-> Hits: 0, Late: 5, Early: 0, Misses: 0
34-> Hits: 30, Late: 0, Early: 0, Misses: 0
36-> Hits: 2, Late: 0, Early: 0, Misses: 4
37-> Hits: 75, Late: 7, Early: 0, Misses: 0
3c-> Hits: 38, Late: 0, Early: 0, Misses: 0
3f-> Hits: 6, Late: 0, Early: 0, Misses: 0
40-> Hits: 100381, Late: 139, Early: 0, Misses: 0
42-> Hits: 59, Late: 0, Early: 0, Misses: 0
43-> Hits: 17, Late: 0, Early: 0, Misses: 0
45-> Hits: 1, Late: 0, Early: 0, Misses: 5
47-> Hits: 4601, Late: 0, Early: 0, Misses: 0
4d-> Hits: 0, Late: 1, Early: 0, Misses: 5
51-> Hits: 102604, Late: 119, Early: 0, Misses: 0
52-> Hits: 8, Late: 0, Early: 0, Misses: 0
56-> Hits: 93204, Late: 180, Early: 0, Misses: 0
57-> Hits: 17, Late: 0, Early: 0, Misses: 0
5a-> Hits: 22, Late: 0, Early: 0, Misses: 0
5c-> Hits: 8521, Late: 5, Early: 0, Misses: 0
5d-> Hits: 6, Late: 0, Early: 0, Misses: 0
65-> Hits: 1739, Late: 0, Early: 0, Misses: 0
67-> Hits: 19, Late: 0, Early: 0, Misses: 0
68-> Hits: 3, Late: 0, Early: 0, Misses: 0
6a-> Hits: 0, Late: 5, Early: 0, Misses: 0
6c-> Hits: 22, Late: 0, Early: 0, Misses: 0
6e-> Hits: 87707, Late: 28, Early: 0, Misses: 0
70-> Hits: 15447, Late: 280, Early: 0, Misses: 6
71-> Hits: 6, Late: 0, Early: 0, Misses: 0
73-> Hits: 4, Late: 0, Early: 0, Misses: 0
74-> Hits: 1739, Late: 0, Early: 0, Misses: 0
75-> Hits: 8108, Late: 453, Early: 0, Misses: 0
7a-> Hits: 1429, Late: 7, Early: 0, Misses: 0
7d-> Hits: 4, Late: 0, Early: 0, Misses: 0
7e-> Hits: 59, Late: 5, Early: 0, Misses: 3
7f-> Hits: 735, Late: 19, Early: 0, Misses: 0
81-> Hits: 90, Late: 0, Early: 0, Misses: 0
83-> Hits: 99, Late: 0, Early: 0, Misses: 0
85-> Hits: 95, Late: 0, Early: 0, Misses: 0
88-> Hits: 4, Late: 0, Early: 0, Misses: 0
8b-> Hits: 0, Late: 0, Early: 0, Misses: 5
8d-> Hits: 1, Late: 0, Early: 0, Misses: 0
92-> Hits: 3, Late: 2, Early: 0, Misses: 0
95-> Hits: 5, Late: 0, Early: 0, Misses: 0
96-> Hits: 30, Late: 6, Early: 0, Misses: 0
a0-> Hits: 985, Late: 0, Early: 0, Misses: 0
a1-> Hits: 1598, Late: 0, Early: 0, Misses: 0
a3-> Hits: 3, Late: 0, Early: 0, Misses: 0
a7-> Hits: 2, Late: 3, Early: 0, Misses: 0
a8-> Hits: 12, Late: 0, Early: 0, Misses: 0
aa-> Hits: 6, Late: 0, Early: 0, Misses: 0
ab-> Hits: 2959, Late: 0, Early: 0, Misses: 0
b4-> Hits: 444, Late: 9, Early: 0, Misses: 0
b6-> Hits: 475, Late: 0, Early: 0, Misses: 0
bc-> Hits: 0, Late: 22, Early: 0, Misses: 0
c2-> Hits: 475, Late: 0, Early: 0, Misses: 0
c8-> Hits: 0, Late: 2, Early: 0, Misses: 0
cc-> Hits: 0, Late: 0, Early: 0, Misses: 5
d0-> Hits: 20241, Late: 119, Early: 0, Misses: 0
d4-> Hits: 25917, Late: 6, Early: 0, Misses: 0
d6-> Hits: 1598, Late: 0, Early: 0, Misses: 0
d9-> Hits: 6, Late: 0, Early: 0, Misses: 0
db-> Hits: 1550, Late: 0, Early: 0, Misses: 0
dc-> Hits: 25914, Late: 6, Early: 0, Misses: 0
e0-> Hits: 2163, Late: 0, Early: 0, Misses: 0
e5-> Hits: 2446, Late: 0, Early: 0, Misses: 0
e9-> Hits: 0, Late: 6, Early: 0, Misses: 0
f3-> Hits: 1597, Late: 1, Early: 0, Misses: 0
f4-> Hits: 3, Late: 0, Early: 0, Misses: 0
f7-> Hits: 6, Late: 0, Early: 0, Misses: 0
f9-> Hits: 5, Late: 0, Early: 0, Misses: 0
ff-> Hits: 3, Late: 0, Early: 0, Misses: 0
106-> Hits: 6, Late: 0, Early: 0, Misses: 0
108-> Hits: 475, Late: 0, Early: 0, Misses: 0
109-> Hits: 461, Late: 0, Early: 0, Misses: 0
10b-> Hits: 1361, Late: 0, Early: 0, Misses: 0
10e-> Hits: 6, Late: 0, Early: 0, Misses: 0
112-> Hits: 5, Late: 0, Early: 0, Misses: 0
116-> Hits: 1101, Late: 0, Early: 0, Misses: 4
119-> Hits: 6, Late: 0, Early: 0, Misses: 0
11e-> Hits: 13, Late: 0, Early: 0, Misses: 0
11f-> Hits: 1560, Late: 0, Early: 0, Misses: 0
121-> Hits: 6, Late: 0, Early: 0, Misses: 0
126-> Hits: 5, Late: 0, Early: 0, Misses: 5
127-> Hits: 1, Late: 0, Early: 0, Misses: 0
12b-> Hits: 1037, Late: 0, Early: 0, Misses: 0
131-> Hits: 5, Late: 0, Early: 0, Misses: 0
133-> Hits: 1572, Late: 0, Early: 0, Misses: 0
134-> Hits: 0, Late: 0, Early: 0, Misses: 5
137-> Hits: 6, Late: 0, Early: 0, Misses: 0
138-> Hits: 1598, Late: 6, Early: 0, Misses: 0
13e-> Hits: 561, Late: 0, Early: 0, Misses: 0
140-> Hits: 34, Late: 0, Early: 0, Misses: 0
144-> Hits: 5, Late: 0, Early: 0, Misses: 0
146-> Hits: 1212, Late: 0, Early: 0, Misses: 0
148-> Hits: 5, Late: 0, Early: 0, Misses: 0
14a-> Hits: 0, Late: 22, Early: 0, Misses: 0
14c-> Hits: 905, Late: 0, Early: 0, Misses: 0
14e-> Hits: 0, Late: 0, Early: 0, Misses: 5
150-> Hits: 2, Late: 0, Early: 0, Misses: 0
152-> Hits: 6, Late: 22, Early: 0, Misses: 0
154-> Hits: 1598, Late: 0, Early: 0, Misses: 0
156-> Hits: 0, Late: 5, Early: 0, Misses: 0
159-> Hits: 3, Late: 2, Early: 0, Misses: 0
15a-> Hits: 1598, Late: 0, Early: 0, Misses: 0
15e-> Hits: 0, Late: 5, Early: 0, Misses: 0
161-> Hits: 2, Late: 0, Early: 0, Misses: 0
163-> Hits: 5, Late: 1, Early: 0, Misses: 0
166-> Hits: 0, Late: 0, Early: 0, Misses: 6
167-> Hits: 1598, Late: 0, Early: 0, Misses: 0
16b-> Hits: 0, Late: 5, Early: 0, Misses: 0
16e-> Hits: 11, Late: 6, Early: 0, Misses: 0
173-> Hits: 327, Late: 0, Early: 0, Misses: 0
17b-> Hits: 2, Late: 0, Early: 0, Misses: 0
180-> Hits: 0, Late: 6, Early: 0, Misses: 0
184-> Hits: 6, Late: 0, Early: 0, Misses: 0
187-> Hits: 1137, Late: 0, Early: 0, Misses: 0
188-> Hits: 5, Late: 0, Early: 0, Misses: 0
189-> Hits: 1527, Late: 0, Early: 0, Misses: 0
18a-> Hits: 5, Late: 0, Early: 0, Misses: 0
18f-> Hits: 894, Late: 0, Early: 0, Misses: 0
190-> Hits: 6, Late: 0, Early: 0, Misses: 0
192-> Hits: 5, Late: 6, Early: 0, Misses: 0
197-> Hits: 86, Late: 0, Early: 0, Misses: 0
19e-> Hits: 465, Late: 5, Early: 0, Misses: 0
1a4-> Hits: 10, Late: 1, Early: 0, Misses: 0
1a5-> Hits: 208, Late: 0, Early: 0, Misses: 0
1a7-> Hits: 475, Late: 0, Early: 0, Misses: 0
1ab-> Hits: 5, Late: 0, Early: 0, Misses: 0
1ad-> Hits: 272, Late: 0, Early: 0, Misses: 0
1b0-> Hits: 68398, Late: 3054, Early: 0, Misses: 0
1b2-> Hits: 4, Late: 0, Early: 0, Misses: 0
1b5-> Hits: 45810, Late: 112, Early: 0, Misses: 0
1b7-> Hits: 5, Late: 0, Early: 0, Misses: 1
1b9-> Hits: 71604, Late: 133, Early: 0, Misses: 0
1bb-> Hits: 4, Late: 0, Early: 0, Misses: 0
1bd-> Hits: 0, Late: 7, Early: 0, Misses: 0
1be-> Hits: 29527, Late: 14, Early: 0, Misses: 0
1c6-> Hits: 0, Late: 2, Early: 0, Misses: 0
1cc-> Hits: 1, Late: 0, Early: 0, Misses: 4
1ce-> Hits: 3, Late: 2, Early: 0, Misses: 4
1d3-> Hits: 10, Late: 1, Early: 0, Misses: 16
1da-> Hits: 5, Late: 0, Early: 0, Misses: 0
1db-> Hits: 9, Late: 0, Early: 0, Misses: 6
1e2-> Hits: 5, Late: 0, Early: 0, Misses: 0
1e5-> Hits: 4, Late: 0, Early: 0, Misses: 0
1e6-> Hits: 5, Late: 0, Early: 0, Misses: 0
1ed-> Hits: 0, Late: 17, Early: 0, Misses: 0
1f3-> Hits: 5, Late: 0, Early: 0, Misses: 0
1f7-> Hits: 5, Late: 0, Early: 0, Misses: 0
1fa-> Hits: 38, Late: 0, Early: 0, Misses: 0
1fb-> Hits: 2, Late: 0, Early: 0, Misses: 0
1fc-> Hits: 9, Late: 0, Early: 0, Misses: 7
200-> Hits: 14603, Late: 57, Early: 0, Misses: 0
202-> Hits: 6, Late: 0, Early: 0, Misses: 0
204-> Hits: 0, Late: 0, Early: 0, Misses: 3
205-> Hits: 1406, Late: 0, Early: 0, Misses: 0
206-> Hits: 156, Late: 0, Early: 0, Misses: 0
20a-> Hits: 3, Late: 0, Early: 0, Misses: 0
20b-> Hits: 12136, Late: 781, Early: 0, Misses: 0
20d-> Hits: 5, Late: 0, Early: 0, Misses: 0
210-> Hits: 28647, Late: 0, Early: 0, Misses: 0
211-> Hits: 8056, Late: 680, Early: 0, Misses: 0
214-> Hits: 28216, Late: 2, Early: 0, Misses: 0
215-> Hits: 1739, Late: 0, Early: 0, Misses: 0
21c-> Hits: 26790, Late: 67, Early: 0, Misses: 0
21d-> Hits: 17, Late: 0, Early: 0, Misses: 0
21e-> Hits: 13047, Late: 8, Early: 0, Misses: 0
21f-> Hits: 5, Late: 0, Early: 0, Misses: 0
220-> Hits: 490, Late: 0, Early: 0, Misses: 0
221-> Hits: 1181, Late: 0, Early: 0, Misses: 0
223-> Hits: 8838, Late: 17, Early: 0, Misses: 0
225-> Hits: 26838, Late: 52, Early: 0, Misses: 0
228-> Hits: 584, Late: 1, Early: 0, Misses: 0
229-> Hits: 1168, Late: 1, Early: 0, Misses: 0
230-> Hits: 12375, Late: 700, Early: 0, Misses: 0
231-> Hits: 1190, Late: 0, Early: 0, Misses: 0
232-> Hits: 26012, Late: 130, Early: 0, Misses: 0
235-> Hits: 8659, Late: 653, Early: 0, Misses: 0
237-> Hits: 1, Late: 0, Early: 0, Misses: 0
239-> Hits: 11, Late: 0, Early: 0, Misses: 0
23e-> Hits: 1739, Late: 0, Early: 0, Misses: 0
240-> Hits: 149, Late: 17, Early: 0, Misses: 0
241-> Hits: 17, Late: 0, Early: 0, Misses: 0
243-> Hits: 1739, Late: 6, Early: 0, Misses: 0
244-> Hits: 0, Late: 0, Early: 0, Misses: 5
245-> Hits: 54, Late: 37, Early: 0, Misses: 0
246-> Hits: 2, Late: 0, Early: 0, Misses: 0
249-> Hits: 138, Late: 26, Early: 0, Misses: 0
24a-> Hits: 3, Late: 3, Early: 0, Misses: 0
24b-> Hits: 1740, Late: 0, Early: 0, Misses: 4
24e-> Hits: 53, Late: 38, Early: 0, Misses: 0
251-> Hits: 432, Late: 0, Early: 0, Misses: 0
255-> Hits: 1, Late: 0, Early: 0, Misses: 0
257-> Hits: 0, Late: 0, Early: 0, Misses: 5
260-> Hits: 35158, Late: 2776, Early: 0, Misses: 81
261-> Hits: 365, Late: 82, Early: 0, Misses: 5
262-> Hits: 157, Late: 7, Early: 0, Misses: 0
264-> Hits: 2068, Late: 0, Early: 0, Misses: 0
267-> Hits: 51, Late: 40, Early: 0, Misses: 0
268-> Hits: 2, Late: 0, Early: 0, Misses: 0
26b-> Hits: 1, Late: 0, Early: 0, Misses: 0
26c-> Hits: 37408, Late: 7, Early: 0, Misses: 12
26f-> Hits: 500, Late: 0, Early: 0, Misses: 0
274-> Hits: 471, Late: 4, Early: 0, Misses: 17
275-> Hits: 2, Late: 0, Early: 0, Misses: 0
279-> Hits: 6, Late: 0, Early: 0, Misses: 1
280-> Hits: 504, Late: 0, Early: 0, Misses: 0
282-> Hits: 3, Late: 3, Early: 0, Misses: 0
284-> Hits: 2, Late: 0, Early: 0, Misses: 0
286-> Hits: 473, Late: 0, Early: 0, Misses: 14
28d-> Hits: 143, Late: 0, Early: 0, Misses: 1
28e-> Hits: 22, Late: 0, Early: 0, Misses: 0
28f-> Hits: 3, Late: 0, Early: 0, Misses: 0
291-> Hits: 0, Late: 1, Early: 0, Misses: 0
293-> Hits: 6, Late: 0, Early: 0, Misses: 1
294-> Hits: 22, Late: 0, Early: 0, Misses: 0
295-> Hits: 0, Late: 1, Early: 0, Misses: 21
296-> Hits: 9, Late: 0, Early: 0, Misses: 0
29a-> Hits: 1, Late: 22, Early: 0, Misses: 0
29d-> Hits: 22, Late: 0, Early: 0, Misses: 0
2a4-> Hits: 0, Late: 0, Early: 0, Misses: 5
2a6-> Hits: 28, Late: 0, Early: 0, Misses: 0
2a8-> Hits: 17, Late: 0, Early: 0, Misses: 0
2aa-> Hits: 1, Late: 4, Early: 0, Misses: 0
2ac-> Hits: 0, Late: 0, Early: 0, Misses: 5
2af-> Hits: 3, Late: 3, Early: 0, Misses: 5
2b0-> Hits: 449, Late: 0, Early: 0, Misses: 0
2b1-> Hits: 1, Late: 0, Early: 0, Misses: 0
2b3-> Hits: 22, Late: 0, Early: 0, Misses: 0
2b6-> Hits: 470, Late: 0, Early: 0, Misses: 0
2b8-> Hits: 14, Late: 0, Early: 0, Misses: 0
2bc-> Hits: 491, Late: 0, Early: 0, Misses: 0
2bf-> Hits: 6, Late: 0, Early: 0, Misses: 0
2c2-> Hits: 446, Late: 0, Early: 0, Misses: 0
2c4-> Hits: 15, Late: 0, Early: 0, Misses: 0
2c5-> Hits: 1, Late: 1, Early: 0, Misses: 0
2c7-> Hits: 470, Late: 6, Early: 0, Misses: 0
2cb-> Hits: 587, Late: 0, Early: 0, Misses: 0
2cc-> Hits: 5, Late: 0, Early: 0, Misses: 0
2cd-> Hits: 490, Late: 0, Early: 0, Misses: 0
2d2-> Hits: 1, Late: 0, Early: 0, Misses: 0
2d3-> Hits: 12, Late: 0, Early: 0, Misses: 2
2d9-> Hits: 570, Late: 0, Early: 0, Misses: 0
2dc-> Hits: 2, Late: 4, Early: 0, Misses: 0
2e0-> Hits: 187, Late: 71, Early: 0, Misses: 0
2e4-> Hits: 375, Late: 0, Early: 0, Misses: 0
2e5-> Hits: 3, Late: 0, Early: 0, Misses: 0
2e6-> Hits: 0, Late: 0, Early: 0, Misses: 6
2e7-> Hits: 11, Late: 5, Early: 0, Misses: 0
2e8-> Hits: 180, Late: 61, Early: 0, Misses: 0
2ea-> Hits: 5, Late: 0, Early: 0, Misses: 0
2eb-> Hits: 0, Late: 1, Early: 0, Misses: 0
2ef-> Hits: 344, Late: 0, Early: 0, Misses: 0
2f2-> Hits: 7, Late: 0, Early: 0, Misses: 0
2f9-> Hits: 8, Late: 0, Early: 0, Misses: 0
2fa-> Hits: 0, Late: 6, Early: 0, Misses: 6
2ff-> Hits: 7, Late: 10, Early: 0, Misses: 0
305-> Hits: 11, Late: 11, Early: 0, Misses: 0
306-> Hits: 405, Late: 0, Early: 0, Misses: 0
307-> Hits: 480, Late: 0, Early: 0, Misses: 0
309-> Hits: 3, Late: 3, Early: 0, Misses: 0
30b-> Hits: 0, Late: 0, Early: 0, Misses: 5
310-> Hits: 1, Late: 0, Early: 0, Misses: 0
312-> Hits: 480, Late: 0, Early: 0, Misses: 0
314-> Hits: 0, Late: 5, Early: 0, Misses: 0
315-> Hits: 470, Late: 0, Early: 0, Misses: 0
31a-> Hits: 480, Late: 0, Early: 0, Misses: 0
31c-> Hits: 0, Late: 22, Early: 0, Misses: 0
31d-> Hits: 337, Late: 5, Early: 0, Misses: 0
320-> Hits: 4, Late: 9, Early: 0, Misses: 0
325-> Hits: 22, Late: 0, Early: 0, Misses: 6
326-> Hits: 0, Late: 5, Early: 0, Misses: 0
327-> Hits: 1, Late: 1, Early: 0, Misses: 0
328-> Hits: 470, Late: 0, Early: 0, Misses: 0
32c-> Hits: 6, Late: 1, Early: 0, Misses: 0
330-> Hits: 502, Late: 0, Early: 0, Misses: 0
332-> Hits: 0, Late: 22, Early: 0, Misses: 0
336-> Hits: 3, Late: 6, Early: 0, Misses: 0
338-> Hits: 492, Late: 0, Early: 0, Misses: 0
33d-> Hits: 349, Late: 0, Early: 0, Misses: 0
340-> Hits: 340, Late: 0, Early: 0, Misses: 16
342-> Hits: 11, Late: 6, Early: 0, Misses: 0
343-> Hits: 108, Late: 0, Early: 0, Misses: 0
344-> Hits: 341, Late: 2, Early: 0, Misses: 16
345-> Hits: 12, Late: 15, Early: 0, Misses: 0
347-> Hits: 6, Late: 0, Early: 0, Misses: 0
349-> Hits: 346, Late: 0, Early: 0, Misses: 9
34b-> Hits: 476, Late: 0, Early: 0, Misses: 0
34e-> Hits: 13, Late: 1, Early: 0, Misses: 0
350-> Hits: 2, Late: 0, Early: 0, Misses: 3
352-> Hits: 0, Late: 0, Early: 0, Misses: 6
354-> Hits: 469, Late: 0, Early: 0, Misses: 0
359-> Hits: 228, Late: 9, Early: 0, Misses: 0
35a-> Hits: 6, Late: 0, Early: 0, Misses: 0
35b-> Hits: 3, Late: 1, Early: 0, Misses: 0
361-> Hits: 0, Late: 12, Early: 0, Misses: 5
363-> Hits: 470, Late: 0, Early: 0, Misses: 0
368-> Hits: 6, Late: 16, Early: 0, Misses: 0
370-> Hits: 470, Late: 0, Early: 0, Misses: 0
371-> Hits: 5, Late: 0, Early: 0, Misses: 0
375-> Hits: 0, Late: 2, Early: 0, Misses: 0
378-> Hits: 470, Late: 0, Early: 0, Misses: 0
379-> Hits: 1, Late: 1, Early: 0, Misses: 4
380-> Hits: 4, Late: 0, Early: 0, Misses: 0
385-> Hits: 6, Late: 0, Early: 0, Misses: 0
388-> Hits: 3, Late: 3, Early: 0, Misses: 0
38a-> Hits: 2, Late: 4, Early: 0, Misses: 0
38d-> Hits: 4, Late: 0, Early: 0, Misses: 0
38f-> Hits: 1, Late: 0, Early: 0, Misses: 0
390-> Hits: 205507, Late: 1520, Early: 0, Misses: 0
391-> Hits: 435, Late: 0, Early: 0, Misses: 0
395-> Hits: 5, Late: 0, Early: 0, Misses: 0
39f-> Hits: 207722, Late: 22, Early: 0, Misses: 0
3a0-> Hits: 4, Late: 2, Early: 0, Misses: 0
3a4-> Hits: 6, Late: 0, Early: 0, Misses: 0
3a6-> Hits: 3, Late: 0, Early: 0, Misses: 0
3a7-> Hits: 5, Late: 22, Early: 0, Misses: 0
3a9-> Hits: 0, Late: 0, Early: 0, Misses: 5
3ac-> Hits: 3, Late: 1, Early: 0, Misses: 2
3ad-> Hits: 1, Late: 0, Early: 0, Misses: 0
3b0-> Hits: 0, Late: 22, Early: 0, Misses: 0
3b4-> Hits: 4, Late: 0, Early: 0, Misses: 0
3b5-> Hits: 191145, Late: 87, Early: 0, Misses: 0
3b6-> Hits: 1337, Late: 13, Early: 0, Misses: 0
3b7-> Hits: 5, Late: 0, Early: 0, Misses: 0
3b8-> Hits: 0, Late: 22, Early: 0, Misses: 0
3be-> Hits: 0, Late: 5, Early: 0, Misses: 0
3c0-> Hits: 5, Late: 22, Early: 0, Misses: 0
3c3-> Hits: 1943, Late: 0, Early: 0, Misses: 0
3c6-> Hits: 2, Late: 7, Early: 0, Misses: 0
3c8-> Hits: 5, Late: 22, Early: 0, Misses: 0
3cb-> Hits: 171016, Late: 6738, Early: 0, Misses: 0
3cf-> Hits: 1391, Late: 0, Early: 0, Misses: 0
3d4-> Hits: 4, Late: 2, Early: 0, Misses: 0
3d6-> Hits: 159392, Late: 0, Early: 0, Misses: 0
3da-> Hits: 2, Late: 4, Early: 0, Misses: 0
3db-> Hits: 11, Late: 0, Early: 0, Misses: 0
3dc-> Hits: 6, Late: 0, Early: 0, Misses: 0
3e5-> Hits: 341, Late: 65, Early: 0, Misses: 8
3e7-> Hits: 1991, Late: 0, Early: 0, Misses: 0
3e9-> Hits: 5, Late: 0, Early: 0, Misses: 0
3ea-> Hits: 6, Late: 0, Early: 0, Misses: 0
3ef-> Hits: 1959, Late: 0, Early: 0, Misses: 0
3f0-> Hits: 259568, Late: 502, Early: 0, Misses: 0
3f3-> Hits: 4, Late: 0, Early: 0, Misses: 0
3f4-> Hits: 5, Late: 0, Early: 0, Misses: 0
3f8-> Hits: 3, Late: 3, Early: 0, Misses: 0
3ff-> Hits: 1714, Late: 0, Early: 0, Misses: 0
400-> Hits: 8, Late: 0, Early: 0, Misses: 0
405-> Hits: 1598, Late: 0, Early: 0, Misses: 0
406-> Hits: 126800, Late: 630, Early: 0, Misses: 0
407-> Hits: 4, Late: 0, Early: 0, Misses: 5
409-> Hits: 336, Late: 109, Early: 0, Misses: 0
40c-> Hits: 127278, Late: 539, Early: 0, Misses: 0
40d-> Hits: 3, Late: 0, Early: 0, Misses: 0
414-> Hits: 5, Late: 0, Early: 0, Misses: 0
416-> Hits: 3, Late: 14, Early: 0, Misses: 0
41a-> Hits: 2, Late: 4, Early: 0, Misses: 0
41d-> Hits: 123371, Late: 588, Early: 0, Misses: 0
41e-> Hits: 0, Late: 0, Early: 0, Misses: 17
420-> Hits: 1953, Late: 17, Early: 0, Misses: 0
425-> Hits: 1, Late: 0, Early: 0, Misses: 0
428-> Hits: 8, Late: 0, Early: 0, Misses: 1
42a-> Hits: 9, Late: 0, Early: 0, Misses: 0
42d-> Hits: 5, Late: 0, Early: 0, Misses: 0
430-> Hits: 6, Late: 0, Early: 0, Misses: 0
433-> Hits: 472, Late: 0, Early: 0, Misses: 3
434-> Hits: 0, Late: 6, Early: 0, Misses: 0
436-> Hits: 5, Late: 0, Early: 0, Misses: 0
438-> Hits: 2002, Late: 0, Early: 0, Misses: 0
43b-> Hits: 3, Late: 0, Early: 0, Misses: 0
43c-> Hits: 470, Late: 5, Early: 0, Misses: 0
43f-> Hits: 1970, Late: 0, Early: 0, Misses: 0
440-> Hits: 124994, Late: 7407, Early: 0, Misses: 0
442-> Hits: 6, Late: 0, Early: 0, Misses: 0
443-> Hits: 18, Late: 2, Early: 0, Misses: 0
445-> Hits: 119844, Late: 7333, Early: 0, Misses: 0
447-> Hits: 1551, Late: 0, Early: 0, Misses: 0
448-> Hits: 5, Late: 0, Early: 0, Misses: 0
44d-> Hits: 1997, Late: 0, Early: 0, Misses: 0
450-> Hits: 472, Late: 1, Early: 0, Misses: 2
452-> Hits: 1, Late: 0, Early: 0, Misses: 0
453-> Hits: 528, Late: 1, Early: 0, Misses: 0
456-> Hits: 3, Late: 1, Early: 0, Misses: 0
458-> Hits: 473, Late: 0, Early: 0, Misses: 0
459-> Hits: 8, Late: 0, Early: 0, Misses: 3
45a-> Hits: 121576, Late: 6886, Early: 0, Misses: 0
460-> Hits: 466, Late: 4, Early: 0, Misses: 0
461-> Hits: 10, Late: 1, Early: 0, Misses: 0
464-> Hits: 937, Late: 0, Early: 0, Misses: 0
466-> Hits: 530, Late: 1, Early: 0, Misses: 0
469-> Hits: 7, Late: 468, Early: 0, Misses: 0
46a-> Hits: 2479, Late: 0, Early: 0, Misses: 0
46b-> Hits: 6, Late: 0, Early: 0, Misses: 0
46f-> Hits: 5, Late: 0, Early: 0, Misses: 0
472-> Hits: 2026, Late: 0, Early: 0, Misses: 0
475-> Hits: 961, Late: 0, Early: 0, Misses: 0
47a-> Hits: 2003, Late: 0, Early: 0, Misses: 0
47b-> Hits: 5, Late: 0, Early: 0, Misses: 0
47c-> Hits: 225, Late: 0, Early: 0, Misses: 0
47f-> Hits: 1, Late: 0, Early: 0, Misses: 0
481-> Hits: 711, Late: 0, Early: 0, Misses: 0
484-> Hits: 1731, Late: 0, Early: 0, Misses: 0
489-> Hits: 959, Late: 1, Early: 0, Misses: 0
48d-> Hits: 2090, Late: 0, Early: 0, Misses: 0
48e-> Hits: 8, Late: 3, Early: 0, Misses: 0
490-> Hits: 18347, Late: 18, Early: 0, Misses: 0
492-> Hits: 5, Late: 0, Early: 0, Misses: 0
495-> Hits: 9719, Late: 146, Early: 0, Misses: 0
499-> Hits: 15363, Late: 152, Early: 0, Misses: 0
49d-> Hits: 146, Late: 0, Early: 0, Misses: 0
4a0-> Hits: 62170, Late: 131, Early: 0, Misses: 0
4a4-> Hits: 68216, Late: 65, Early: 0, Misses: 0
4a5-> Hits: 258, Late: 0, Early: 0, Misses: 0
4aa-> Hits: 4, Late: 2, Early: 0, Misses: 0
4ab-> Hits: 0, Late: 0, Early: 0, Misses: 22
4b0-> Hits: 9909, Late: 3528, Early: 0, Misses: 0
4b5-> Hits: 244, Late: 3, Early: 0, Misses: 0
4b7-> Hits: 1717, Late: 5, Early: 0, Misses: 17
4ba-> Hits: 5710, Late: 222, Early: 0, Misses: 0
4bb-> Hits: 6, Late: 0, Early: 0, Misses: 0
4bd-> Hits: 22, Late: 0, Early: 0, Misses: 0
4bf-> Hits: 676, Late: 1, Early: 0, Misses: 0
4c0-> Hits: 1725, Late: 22, Early: 0, Misses: 0
4c7-> Hits: 465, Late: 0, Early: 0, Misses: 0
4c8-> Hits: 1734, Late: 0, Early: 0, Misses: 5
4ca-> Hits: 2, Late: 0, Early: 0, Misses: 0
4cb-> Hits: 23882, Late: 1, Early: 0, Misses: 0
4cf-> Hits: 450, Late: 15, Early: 0, Misses: 0
4d0-> Hits: 1717, Late: 22, Early: 0, Misses: 0
4d4-> Hits: 14, Late: 0, Early: 0, Misses: 0
4d6-> Hits: 22, Late: 0, Early: 0, Misses: 0
4d7-> Hits: 22, Late: 0, Early: 0, Misses: 0
4d8-> Hits: 1744, Late: 0, Early: 0, Misses: 0
4d9-> Hits: 22, Late: 0, Early: 0, Misses: 0
4db-> Hits: 18, Late: 4, Early: 0, Misses: 0
4dc-> Hits: 449, Late: 16, Early: 0, Misses: 0
4dd-> Hits: 22, Late: 0, Early: 0, Misses: 17
4df-> Hits: 21, Late: 1, Early: 0, Misses: 0
4e0-> Hits: 162110, Late: 1, Early: 0, Misses: 0
4e1-> Hits: 18397, Late: 0, Early: 0, Misses: 0
4e8-> Hits: 6, Late: 0, Early: 0, Misses: 0
4f1-> Hits: 19584, Late: 0, Early: 0, Misses: 0
4f4-> Hits: 568, Late: 2, Early: 0, Misses: 0
4f6-> Hits: 183070, Late: 0, Early: 0, Misses: 0
4fa-> Hits: 5, Late: 0, Early: 0, Misses: 0
4fb-> Hits: 6, Late: 0, Early: 0, Misses: 0
4fc-> Hits: 180608, Late: 0, Early: 0, Misses: 0
501-> Hits: 531, Late: 1, Early: 0, Misses: 0
502-> Hits: 24364, Late: 0, Early: 0, Misses: 0
503-> Hits: 480, Late: 0, Early: 0, Misses: 0
506-> Hits: 2, Late: 0, Early: 0, Misses: 0
508-> Hits: 24482, Late: 0, Early: 0, Misses: 0
509-> Hits: 5, Late: 0, Early: 0, Misses: 8
50a-> Hits: 6, Late: 0, Early: 0, Misses: 0
50c-> Hits: 5, Late: 0, Early: 0, Misses: 0
50e-> Hits: 196723, Late: 1, Early: 0, Misses: 0
50f-> Hits: 475, Late: 0, Early: 0, Misses: 0
510-> Hits: 22044, Late: 1, Early: 0, Misses: 0
514-> Hits: 21679, Late: 0, Early: 0, Misses: 0
515-> Hits: 9, Late: 0, Early: 0, Misses: 0
516-> Hits: 17, Late: 0, Early: 0, Misses: 0
519-> Hits: 25742, Late: 3, Early: 0, Misses: 0
51a-> Hits: 18, Late: 0, Early: 0, Misses: 4
51e-> Hits: 0, Late: 5, Early: 0, Misses: 0
51f-> Hits: 6, Late: 0, Early: 0, Misses: 0
520-> Hits: 706, Late: 0, Early: 0, Misses: 0
523-> Hits: 2, Late: 0, Early: 0, Misses: 0
526-> Hits: 1125, Late: 0, Early: 0, Misses: 0
529-> Hits: 21579, Late: 32, Early: 0, Misses: 0
52a-> Hits: 26, Late: 0, Early: 0, Misses: 0
52c-> Hits: 227, Late: 28, Early: 0, Misses: 0
52d-> Hits: 9, Late: 0, Early: 0, Misses: 0
530-> Hits: 18512, Late: 69, Early: 0, Misses: 20
535-> Hits: 17814, Late: 0, Early: 0, Misses: 0
539-> Hits: 1, Late: 1, Early: 0, Misses: 4
53a-> Hits: 3, Late: 3, Early: 0, Misses: 0
540-> Hits: 375, Late: 0, Early: 0, Misses: 0
541-> Hits: 62, Late: 0, Early: 0, Misses: 0
542-> Hits: 3, Late: 0, Early: 0, Misses: 3
544-> Hits: 359, Late: 1, Early: 0, Misses: 5
545-> Hits: 140, Late: 0, Early: 0, Misses: 0
549-> Hits: 498, Late: 323, Early: 0, Misses: 87
54a-> Hits: 16995, Late: 0, Early: 0, Misses: 0
54d-> Hits: 15, Late: 0, Early: 0, Misses: 3
550-> Hits: 3, Late: 0, Early: 0, Misses: 0
551-> Hits: 2461, Late: 0, Early: 0, Misses: 0
554-> Hits: 1766, Late: 1, Early: 0, Misses: 0
555-> Hits: 4, Late: 0, Early: 0, Misses: 0
559-> Hits: 2, Late: 0, Early: 0, Misses: 3
55b-> Hits: 187, Late: 28, Early: 0, Misses: 0
55d-> Hits: 12, Late: 0, Early: 0, Misses: 5
55e-> Hits: 2, Late: 2, Early: 0, Misses: 1
55f-> Hits: 4, Late: 0, Early: 0, Misses: 0
560-> Hits: 4, Late: 1, Early: 0, Misses: 0
561-> Hits: 22, Late: 0, Early: 0, Misses: 0
565-> Hits: 166249, Late: 1, Early: 0, Misses: 0
568-> Hits: 9, Late: 7, Early: 0, Misses: 3
569-> Hits: 5, Late: 0, Early: 0, Misses: 0
56d-> Hits: 4, Late: 0, Early: 0, Misses: 0
570-> Hits: 9, Late: 1, Early: 0, Misses: 0
574-> Hits: 0, Late: 8, Early: 0, Misses: 4
575-> Hits: 2, Late: 0, Early: 0, Misses: 3
576-> Hits: 105, Late: 2, Early: 0, Misses: 0
57d-> Hits: 5, Late: 0, Early: 0, Misses: 0
57f-> Hits: 1739, Late: 0, Early: 0, Misses: 0
580-> Hits: 1745, Late: 0, Early: 0, Misses: 0
582-> Hits: 1739, Late: 0, Early: 0, Misses: 0
584-> Hits: 1740, Late: 1, Early: 0, Misses: 0
586-> Hits: 1739, Late: 0, Early: 0, Misses: 6
588-> Hits: 1739, Late: 0, Early: 0, Misses: 0
589-> Hits: 1740, Late: 0, Early: 0, Misses: 4
58b-> Hits: 6, Late: 0, Early: 0, Misses: 0
58d-> Hits: 14, Late: 0, Early: 0, Misses: 2
592-> Hits: 0, Late: 0, Early: 0, Misses: 6
595-> Hits: 1981, Late: 22, Early: 0, Misses: 0
596-> Hits: 1, Late: 2, Early: 0, Misses: 3
598-> Hits: 1998, Late: 0, Early: 0, Misses: 0
59a-> Hits: 6, Late: 0, Early: 0, Misses: 0
59b-> Hits: 22, Late: 0, Early: 0, Misses: 0
59e-> Hits: 6, Late: 0, Early: 0, Misses: 5
5a0-> Hits: 21, Late: 0, Early: 0, Misses: 0
5a3-> Hits: 0, Late: 6, Early: 0, Misses: 0
5a5-> Hits: 22, Late: 0, Early: 0, Misses: 0
5a6-> Hits: 8, Late: 0, Early: 0, Misses: 3
5ab-> Hits: 0, Late: 2, Early: 0, Misses: 4
5b2-> Hits: 0, Late: 5, Early: 0, Misses: 6
5b3-> Hits: 0, Late: 0, Early: 0, Misses: 16
5b4-> Hits: 16, Late: 0, Early: 0, Misses: 0
5b6-> Hits: 16, Late: 0, Early: 0, Misses: 0
5b8-> Hits: 16, Late: 0, Early: 0, Misses: 0
5ba-> Hits: 16, Late: 0, Early: 0, Misses: 6
5bb-> Hits: 465, Late: 22, Early: 0, Misses: 0
5bc-> Hits: 11, Late: 0, Early: 0, Misses: 5
5bd-> Hits: 16, Late: 0, Early: 0, Misses: 0
5c3-> Hits: 465, Late: 0, Early: 0, Misses: 0
5cf-> Hits: 4, Late: 2, Early: 0, Misses: 0
5d0-> Hits: 250, Late: 0, Early: 0, Misses: 0
5d1-> Hits: 0, Late: 0, Early: 0, Misses: 5
5d6-> Hits: 5, Late: 0, Early: 0, Misses: 0
5d7-> Hits: 6, Late: 0, Early: 0, Misses: 0
5d8-> Hits: 252, Late: 0, Early: 0, Misses: 0
5dd-> Hits: 6, Late: 0, Early: 0, Misses: 0
5e0-> Hits: 1, Late: 4, Early: 0, Misses: 0
5e1-> Hits: 0, Late: 0, Early: 0, Misses: 5
5e3-> Hits: 10, Late: 0, Early: 0, Misses: 0
5e9-> Hits: 5, Late: 0, Early: 0, Misses: 6
5eb-> Hits: 10, Late: 1, Early: 0, Misses: 0
5f3-> Hits: 6, Late: 0, Early: 0, Misses: 0
5f6-> Hits: 11, Late: 0, Early: 0, Misses: 0
5f7-> Hits: 1, Late: 0, Early: 0, Misses: 0
5fa-> Hits: 1997, Late: 1, Early: 0, Misses: 0
5fb-> Hits: 4, Late: 1, Early: 0, Misses: 1
5fe-> Hits: 3, Late: 0, Early: 0, Misses: 0
601-> Hits: 6, Late: 0, Early: 0, Misses: 0
602-> Hits: 1976, Late: 22, Early: 0, Misses: 0
609-> Hits: 5, Late: 0, Early: 0, Misses: 0
60e-> Hits: 4, Late: 0, Early: 0, Misses: 0
60f-> Hits: 2, Late: 2, Early: 0, Misses: 0
610-> Hits: 69860, Late: 0, Early: 0, Misses: 0
611-> Hits: 5, Late: 0, Early: 0, Misses: 0
615-> Hits: 0, Late: 1, Early: 0, Misses: 5
616-> Hits: 28935, Late: 17, Early: 0, Misses: 0
619-> Hits: 5, Late: 0, Early: 0, Misses: 0
61a-> Hits: 0, Late: 4, Early: 0, Misses: 1
61b-> Hits: 6, Late: 0, Early: 0, Misses: 0
61c-> Hits: 5, Late: 0, Early: 0, Misses: 0
622-> Hits: 7, Late: 0, Early: 0, Misses: 2
623-> Hits: 47803, Late: 18, Early: 0, Misses: 0
624-> Hits: 5, Late: 0, Early: 0, Misses: 0
626-> Hits: 5, Late: 0, Early: 0, Misses: 0
62c-> Hits: 7, Late: 0, Early: 0, Misses: 0
62d-> Hits: 48804, Late: 6, Early: 0, Misses: 0
633-> Hits: 3, Late: 2, Early: 0, Misses: 0
635-> Hits: 5, Late: 0, Early: 0, Misses: 0
639-> Hits: 6, Late: 0, Early: 0, Misses: 0
63a-> Hits: 0, Late: 1, Early: 0, Misses: 0
63b-> Hits: 5, Late: 0, Early: 0, Misses: 0
641-> Hits: 3, Late: 0, Early: 0, Misses: 0
643-> Hits: 0, Late: 0, Early: 0, Misses: 5
644-> Hits: 6, Late: 0, Early: 0, Misses: 0
646-> Hits: 5, Late: 5, Early: 0, Misses: 0
64b-> Hits: 1740, Late: 22, Early: 0, Misses: 0
64c-> Hits: 6, Late: 0, Early: 0, Misses: 0
651-> Hits: 0, Late: 5, Early: 0, Misses: 0
653-> Hits: 1742, Late: 22, Early: 0, Misses: 0
657-> Hits: 6, Late: 0, Early: 0, Misses: 0
65b-> Hits: 8, Late: 0, Early: 0, Misses: 0
65e-> Hits: 12, Late: 0, Early: 0, Misses: 0
664-> Hits: 1717, Late: 44, Early: 0, Misses: 0
668-> Hits: 2, Late: 0, Early: 0, Misses: 0
669-> Hits: 0, Late: 5, Early: 0, Misses: 0
66e-> Hits: 7, Late: 3, Early: 0, Misses: 0
670-> Hits: 520015, Late: 173, Early: 0, Misses: 0
673-> Hits: 1, Late: 0, Early: 0, Misses: 0
674-> Hits: 525403, Late: 18, Early: 0, Misses: 91
678-> Hits: 526476, Late: 216, Early: 0, Misses: 0
67b-> Hits: 240, Late: 0, Early: 0, Misses: 0
681-> Hits: 524112, Late: 343, Early: 0, Misses: 0
682-> Hits: 3, Late: 0, Early: 0, Misses: 0
686-> Hits: 1, Late: 1, Early: 0, Misses: 3
68c-> Hits: 3, Late: 2, Early: 0, Misses: 0
690-> Hits: 6, Late: 0, Early: 0, Misses: 0
693-> Hits: 0, Late: 6, Early: 0, Misses: 0
695-> Hits: 11, Late: 0, Early: 0, Misses: 6
697-> Hits: 3, Late: 0, Early: 0, Misses: 0
698-> Hits: 5, Late: 0, Early: 0, Misses: 0
69b-> Hits: 0, Late: 1, Early: 0, Misses: 0
69e-> Hits: 3, Late: 0, Early: 0, Misses: 0
6a0-> Hits: 12, Late: 0, Early: 0, Misses: 0
6a2-> Hits: 7, Late: 0, Early: 0, Misses: 4
6a3-> Hits: 3, Late: 3, Early: 0, Misses: 0
6aa-> Hits: 6, Late: 0, Early: 0, Misses: 0
6af-> Hits: 6, Late: 0, Early: 0, Misses: 0
6b4-> Hits: 0, Late: 1, Early: 0, Misses: 0
6b5-> Hits: 6, Late: 0, Early: 0, Misses: 0
6b6-> Hits: 1, Late: 0, Early: 0, Misses: 0
6b7-> Hits: 17, Late: 0, Early: 0, Misses: 0
6be-> Hits: 0, Late: 1, Early: 0, Misses: 4
6bf-> Hits: 11, Late: 0, Early: 0, Misses: 0
6c0-> Hits: 64, Late: 25, Early: 0, Misses: 0
6c2-> Hits: 3, Late: 0, Early: 0, Misses: 0
6c6-> Hits: 48, Late: 58, Early: 0, Misses: 0
6c7-> Hits: 0, Late: 5, Early: 0, Misses: 0
6c9-> Hits: 16, Late: 0, Early: 0, Misses: 0
6cc-> Hits: 18, Late: 1, Early: 0, Misses: 0
6d2-> Hits: 12, Late: 3, Early: 0, Misses: 0
6d4-> Hits: 7, Late: 0, Early: 0, Misses: 0
6d5-> Hits: 16, Late: 5, Early: 0, Misses: 1
6da-> Hits: 3, Late: 3, Early: 0, Misses: 0
6de-> Hits: 0, Late: 6, Early: 0, Misses: 0
6e4-> Hits: 0, Late: 0, Early: 0, Misses: 22
6e9-> Hits: 1, Late: 4, Early: 0, Misses: 0
6ec-> Hits: 69, Late: 80, Early: 0, Misses: 0
6f1-> Hits: 5, Late: 0, Early: 0, Misses: 0
6f2-> Hits: 6, Late: 0, Early: 0, Misses: 21
6f6-> Hits: 0, Late: 0, Early: 0, Misses: 17
6f7-> Hits: 78, Late: 63, Early: 0, Misses: 0
6f9-> Hits: 2, Late: 8, Early: 0, Misses: 0
6fb-> Hits: 0, Late: 6, Early: 0, Misses: 0
6fd-> Hits: 4, Late: 0, Early: 0, Misses: 0
6ff-> Hits: 0, Late: 17, Early: 0, Misses: 0
700-> Hits: 289, Late: 2, Early: 0, Misses: 0
701-> Hits: 2, Late: 0, Early: 0, Misses: 8
706-> Hits: 287, Late: 0, Early: 0, Misses: 0
707-> Hits: 1, Late: 4, Early: 0, Misses: 0
708-> Hits: 0, Late: 17, Early: 0, Misses: 0
70c-> Hits: 7, Late: 0, Early: 0, Misses: 0
70f-> Hits: 1, Late: 4, Early: 0, Misses: 0
711-> Hits: 6, Late: 0, Early: 0, Misses: 0
714-> Hits: 256, Late: 0, Early: 0, Misses: 0
715-> Hits: 4, Late: 0, Early: 0, Misses: 0
716-> Hits: 3, Late: 5, Early: 0, Misses: 0
71d-> Hits: 10, Late: 0, Early: 0, Misses: 0
720-> Hits: 1150, Late: 0, Early: 0, Misses: 72
721-> Hits: 0, Late: 5, Early: 0, Misses: 0
724-> Hits: 1155, Late: 3, Early: 0, Misses: 72
725-> Hits: 1, Late: 0, Early: 0, Misses: 0
729-> Hits: 1075, Late: 0, Early: 0, Misses: 146
72a-> Hits: 0, Late: 1, Early: 0, Misses: 21
72b-> Hits: 6, Late: 0, Early: 0, Misses: 0
72d-> Hits: 3, Late: 2, Early: 0, Misses: 0
731-> Hits: 6, Late: 0, Early: 0, Misses: 0
734-> Hits: 0, Late: 5, Early: 0, Misses: 0
735-> Hits: 1, Late: 4, Early: 0, Misses: 17
73a-> Hits: 6, Late: 0, Early: 0, Misses: 0
740-> Hits: 3, Late: 3, Early: 0, Misses: 0
742-> Hits: 13, Late: 1, Early: 0, Misses: 0
743-> Hits: 0, Late: 5, Early: 0, Misses: 0
745-> Hits: 6, Late: 0, Early: 0, Misses: 0
748-> Hits: 4, Late: 1, Early: 0, Misses: 0
758-> Hits: 0, Late: 6, Early: 0, Misses: 0
759-> Hits: 0, Late: 5, Early: 0, Misses: 0
760-> Hits: 8, Late: 8, Early: 0, Misses: 0
764-> Hits: 0, Late: 6, Early: 0, Misses: 0
765-> Hits: 0, Late: 5, Early: 0, Misses: 0
769-> Hits: 473, Late: 2, Early: 0, Misses: 0
76d-> Hits: 10, Late: 0, Early: 0, Misses: 0
771-> Hits: 5, Late: 0, Early: 0, Misses: 0
772-> Hits: 475, Late: 0, Early: 0, Misses: 0
778-> Hits: 0, Late: 6, Early: 0, Misses: 0
78b-> Hits: 6, Late: 0, Early: 0, Misses: 0
7a0-> Hits: 12971, Late: 457, Early: 0, Misses: 0
7a2-> Hits: 6, Late: 0, Early: 0, Misses: 0
7a5-> Hits: 8539, Late: 415, Early: 0, Misses: 0
7a9-> Hits: 3, Late: 0, Early: 0, Misses: 0
7aa-> Hits: 13030, Late: 29, Early: 0, Misses: 0
7ae-> Hits: 6, Late: 0, Early: 0, Misses: 0
7af-> Hits: 8884, Late: 64, Early: 0, Misses: 0
7b7-> Hits: 6, Late: 0, Early: 0, Misses: 0
7ba-> Hits: 6, Late: 0, Early: 0, Misses: 0
7bb-> Hits: 12339, Late: 118, Early: 0, Misses: 0
7be-> Hits: 6, Late: 0, Early: 0, Misses: 0
7cd-> Hits: 6, Late: 0, Early: 0, Misses: 0
7cf-> Hits: 1981, Late: 17, Early: 0, Misses: 0
7d0-> Hits: 15294, Late: 1957, Early: 0, Misses: 0
7d5-> Hits: 16087, Late: 181, Early: 0, Misses: 0
7d6-> Hits: 14, Late: 0, Early: 0, Misses: 0
7d7-> Hits: 1998, Late: 0, Early: 0, Misses: 0
7df-> Hits: 12, Late: 0, Early: 0, Misses: 0
7e1-> Hits: 8, Late: 0, Early: 0, Misses: 0
7e2-> Hits: 15178, Late: 2073, Early: 0, Misses: 0
7e3-> Hits: 485, Late: 0, Early: 0, Misses: 0
7e6-> Hits: 16858, Late: 141, Early: 0, Misses: 53
7e7-> Hits: 475, Late: 0, Early: 0, Misses: 0
7ef-> Hits: 569, Late: 1, Early: 0, Misses: 0
7f0-> Hits: 280626, Late: 0, Early: 0, Misses: 0
7f1-> Hits: 872, Late: 8, Early: 0, Misses: 0
7f5-> Hits: 53470, Late: 0, Early: 0, Misses: 0
7f8-> Hits: 6, Late: 0, Early: 0, Misses: 0
7f9-> Hits: 823, Late: 112, Early: 0, Misses: 0
7fa-> Hits: 113299, Late: 0, Early: 0, Misses: 0
800-> Hits: 12, Late: 0, Early: 0, Misses: 0
803-> Hits: 570, Late: 0, Early: 0, Misses: 0
805-> Hits: 72, Late: 0, Early: 0, Misses: 0
808-> Hits: 4, Late: 0, Early: 0, Misses: 0
80b-> Hits: 505, Late: 0, Early: 0, Misses: 0
810-> Hits: 5, Late: 0, Early: 0, Misses: 0
813-> Hits: 17, Late: 0, Early: 0, Misses: 0
816-> Hits: 1, Late: 0, Early: 0, Misses: 0
818-> Hits: 17, Late: 0, Early: 0, Misses: 0
81c-> Hits: 32, Late: 0, Early: 0, Misses: 0
824-> Hits: 5, Late: 0, Early: 0, Misses: 0
826-> Hits: 23, Late: 4, Early: 0, Misses: 0
82c-> Hits: 3, Late: 0, Early: 0, Misses: 2
830-> Hits: 32197, Late: 71, Early: 0, Misses: 0
834-> Hits: 0, Late: 5, Early: 0, Misses: 0
836-> Hits: 8564, Late: 35, Early: 0, Misses: 0
83c-> Hits: 9492, Late: 7, Early: 0, Misses: 0
83d-> Hits: 0, Late: 0, Early: 0, Misses: 17
83e-> Hits: 26, Late: 0, Early: 0, Misses: 0
842-> Hits: 2209, Late: 4, Early: 0, Misses: 0
846-> Hits: 3, Late: 0, Early: 0, Misses: 0
847-> Hits: 6, Late: 0, Early: 0, Misses: 0
84c-> Hits: 6, Late: 0, Early: 0, Misses: 0
84e-> Hits: 6, Late: 0, Early: 0, Misses: 0
84f-> Hits: 31907, Late: 88, Early: 0, Misses: 0
850-> Hits: 31816, Late: 251, Early: 0, Misses: 0
852-> Hits: 475, Late: 0, Early: 0, Misses: 0
855-> Hits: 979, Late: 8, Early: 0, Misses: 0
856-> Hits: 16391, Late: 164, Early: 0, Misses: 0
85c-> Hits: 32847, Late: 158, Early: 0, Misses: 0
85d-> Hits: 29630, Late: 29, Early: 0, Misses: 0
860-> Hits: 475, Late: 0, Early: 0, Misses: 0
863-> Hits: 301310, Late: 336, Early: 0, Misses: 0
864-> Hits: 3, Late: 0, Early: 0, Misses: 0
867-> Hits: 31349, Late: 60, Early: 0, Misses: 0
868-> Hits: 475, Late: 0, Early: 0, Misses: 0
86b-> Hits: 29265, Late: 34, Early: 0, Misses: 0
86c-> Hits: 3, Late: 0, Early: 0, Misses: 0
871-> Hits: 476, Late: 0, Early: 0, Misses: 0
872-> Hits: 17, Late: 0, Early: 0, Misses: 0
876-> Hits: 486, Late: 0, Early: 0, Misses: 0
879-> Hits: 30496, Late: 260, Early: 0, Misses: 0
87a-> Hits: 10, Late: 0, Early: 0, Misses: 0
87e-> Hits: 34, Late: 0, Early: 0, Misses: 0
880-> Hits: 5, Late: 0, Early: 0, Misses: 0
881-> Hits: 11, Late: 4, Early: 0, Misses: 0
882-> Hits: 470, Late: 0, Early: 0, Misses: 0
888-> Hits: 6, Late: 0, Early: 0, Misses: 0
88c-> Hits: 91, Late: 0, Early: 0, Misses: 0
88e-> Hits: 6, Late: 0, Early: 0, Misses: 0
890-> Hits: 7, Late: 0, Early: 0, Misses: 4
891-> Hits: 9, Late: 2, Early: 0, Misses: 0
896-> Hits: 6, Late: 0, Early: 0, Misses: 0
899-> Hits: 15, Late: 0, Early: 0, Misses: 0
89b-> Hits: 7, Late: 2, Early: 0, Misses: 0
89e-> Hits: 940, Late: 0, Early: 0, Misses: 0
8a1-> Hits: 0, Late: 0, Early: 0, Misses: 5
8a5-> Hits: 17, Late: 0, Early: 0, Misses: 0
8a9-> Hits: 0, Late: 2, Early: 0, Misses: 3
8ad-> Hits: 8, Late: 1, Early: 0, Misses: 3
8b0-> Hits: 2, Late: 0, Early: 0, Misses: 0
8b1-> Hits: 1017, Late: 34, Early: 0, Misses: 4
8b5-> Hits: 2, Late: 0, Early: 0, Misses: 0
8b6-> Hits: 6, Late: 0, Early: 0, Misses: 0
8b9-> Hits: 577, Late: 0, Early: 0, Misses: 0
8bc-> Hits: 2061, Late: 0, Early: 0, Misses: 2
8bd-> Hits: 2008, Late: 0, Early: 0, Misses: 0
8be-> Hits: 0, Late: 22, Early: 0, Misses: 0
8bf-> Hits: 1997, Late: 5, Early: 0, Misses: 0
8c1-> Hits: 1997, Late: 0, Early: 0, Misses: 0
8c2-> Hits: 3, Late: 0, Early: 0, Misses: 0
8c5-> Hits: 413, Late: 0, Early: 0, Misses: 0
8c6-> Hits: 570, Late: 0, Early: 0, Misses: 0
8c7-> Hits: 3, Late: 0, Early: 0, Misses: 0
8c8-> Hits: 5, Late: 0, Early: 0, Misses: 0
8c9-> Hits: 19, Late: 6, Early: 0, Misses: 10
8cb-> Hits: 0, Late: 5, Early: 0, Misses: 0
8cd-> Hits: 8, Late: 0, Early: 0, Misses: 1
8d0-> Hits: 6, Late: 0, Early: 0, Misses: 0
8d2-> Hits: 24, Late: 0, Early: 0, Misses: 0
8d7-> Hits: 0, Late: 1, Early: 0, Misses: 9
8dc-> Hits: 6, Late: 0, Early: 0, Misses: 0
8de-> Hits: 67, Late: 3, Early: 0, Misses: 0
8df-> Hits: 17, Late: 0, Early: 0, Misses: 0
8e0-> Hits: 2664, Late: 9, Early: 0, Misses: 0
8e3-> Hits: 0, Late: 0, Early: 0, Misses: 5
8e6-> Hits: 2311, Late: 0, Early: 0, Misses: 0
8e8-> Hits: 17, Late: 0, Early: 0, Misses: 0
8eb-> Hits: 3756, Late: 13, Early: 0, Misses: 2
8f0-> Hits: 3027, Late: 15, Early: 0, Misses: 0
8f1-> Hits: 520, Late: 0, Early: 0, Misses: 0
8f4-> Hits: 5, Late: 1, Early: 0, Misses: 0
8f5-> Hits: 321, Late: 0, Early: 0, Misses: 0
8f7-> Hits: 514, Late: 1, Early: 0, Misses: 0
8f9-> Hits: 245, Late: 94, Early: 0, Misses: 0
8fe-> Hits: 0, Late: 5, Early: 0, Misses: 0
900-> Hits: 73273, Late: 72, Early: 0, Misses: 0
905-> Hits: 37569, Late: 176, Early: 0, Misses: 0
908-> Hits: 348, Late: 0, Early: 0, Misses: 0
909-> Hits: 70786, Late: 2574, Early: 0, Misses: 0
90c-> Hits: 931, Late: 0, Early: 0, Misses: 0
90d-> Hits: 357, Late: 0, Early: 0, Misses: 0
90e-> Hits: 17221, Late: 74, Early: 0, Misses: 0
910-> Hits: 1224, Late: 0, Early: 0, Misses: 0
911-> Hits: 33, Late: 0, Early: 0, Misses: 0
914-> Hits: 1643, Late: 0, Early: 0, Misses: 5
918-> Hits: 12, Late: 0, Early: 0, Misses: 0
919-> Hits: 1223, Late: 0, Early: 0, Misses: 0
91b-> Hits: 269, Late: 70, Early: 0, Misses: 0
91d-> Hits: 135, Late: 0, Early: 0, Misses: 0
928-> Hits: 2285, Late: 22, Early: 0, Misses: 0
92b-> Hits: 361, Late: 0, Early: 0, Misses: 0
92c-> Hits: 2, Late: 0, Early: 0, Misses: 0
931-> Hits: 1508, Late: 0, Early: 0, Misses: 0
934-> Hits: 342, Late: 18, Early: 0, Misses: 0
93c-> Hits: 570, Late: 0, Early: 0, Misses: 0
93d-> Hits: 940, Late: 0, Early: 0, Misses: 0
945-> Hits: 1485, Late: 3, Early: 0, Misses: 0
946-> Hits: 5, Late: 0, Early: 0, Misses: 0
94a-> Hits: 940, Late: 0, Early: 0, Misses: 0
94d-> Hits: 97, Late: 0, Early: 0, Misses: 0
950-> Hits: 15505, Late: 24, Early: 0, Misses: 47
953-> Hits: 3, Late: 0, Early: 0, Misses: 0
954-> Hits: 21595, Late: 5, Early: 0, Misses: 0
958-> Hits: 933, Late: 0, Early: 0, Misses: 0
95c-> Hits: 22012, Late: 5, Early: 0, Misses: 0
95d-> Hits: 6, Late: 0, Early: 0, Misses: 0
960-> Hits: 944, Late: 0, Early: 0, Misses: 0
964-> Hits: 365, Late: 0, Early: 0, Misses: 0
965-> Hits: 946, Late: 0, Early: 0, Misses: 0
96a-> Hits: 570, Late: 0, Early: 0, Misses: 0
96d-> Hits: 628, Late: 0, Early: 0, Misses: 0
970-> Hits: 530, Late: 1, Early: 0, Misses: 0
971-> Hits: 31, Late: 0, Early: 0, Misses: 0
976-> Hits: 445, Late: 6, Early: 0, Misses: 0
978-> Hits: 925, Late: 0, Early: 0, Misses: 0
979-> Hits: 13, Late: 0, Early: 0, Misses: 0
97a-> Hits: 12, Late: 0, Early: 0, Misses: 0
97f-> Hits: 53, Late: 0, Early: 0, Misses: 0
985-> Hits: 14, Late: 6, Early: 0, Misses: 0
987-> Hits: 527, Late: 0, Early: 0, Misses: 0
989-> Hits: 355, Late: 0, Early: 0, Misses: 0
98d-> Hits: 532, Late: 0, Early: 0, Misses: 0
98f-> Hits: 0, Late: 21, Early: 0, Misses: 0
990-> Hits: 15397, Late: 1999, Early: 0, Misses: 0
994-> Hits: 16336, Late: 174, Early: 0, Misses: 0
998-> Hits: 1069, Late: 0, Early: 0, Misses: 0
99c-> Hits: 6, Late: 0, Early: 0, Misses: 22
99d-> Hits: 592, Late: 0, Early: 0, Misses: 0
99f-> Hits: 22, Late: 0, Early: 0, Misses: 0
9a1-> Hits: 14828, Late: 2251, Early: 0, Misses: 0
9a3-> Hits: 23, Late: 1, Early: 0, Misses: 0
9a5-> Hits: 15939, Late: 184, Early: 0, Misses: 0
9a6-> Hits: 462, Late: 0, Early: 0, Misses: 0
9a7-> Hits: 2, Late: 0, Early: 0, Misses: 0
9a8-> Hits: 6, Late: 0, Early: 0, Misses: 0
9b0-> Hits: 507, Late: 0, Early: 0, Misses: 0
9b4-> Hits: 22, Late: 0, Early: 0, Misses: 0
9b7-> Hits: 19, Late: 0, Early: 0, Misses: 0
9ba-> Hits: 22, Late: 1, Early: 0, Misses: 0
9bb-> Hits: 166, Late: 0, Early: 0, Misses: 0
9bc-> Hits: 4, Late: 0, Early: 0, Misses: 0
9bd-> Hits: 19, Late: 2, Early: 0, Misses: 0
9c3-> Hits: 36, Late: 0, Early: 0, Misses: 0
9c4-> Hits: 0, Late: 0, Early: 0, Misses: 10
9c5-> Hits: 10, Late: 0, Early: 0, Misses: 0
9c7-> Hits: 8, Late: 0, Early: 0, Misses: 0
9c9-> Hits: 5, Late: 0, Early: 0, Misses: 0
9cb-> Hits: 31, Late: 0, Early: 0, Misses: 0
9cd-> Hits: 14, Late: 0, Early: 0, Misses: 0
9ce-> Hits: 5, Late: 0, Early: 0, Misses: 0
9cf-> Hits: 0, Late: 0, Early: 0, Misses: 10
9d0-> Hits: 5, Late: 0, Early: 0, Misses: 0
9d3-> Hits: 241, Late: 0, Early: 0, Misses: 0
9d8-> Hits: 32, Late: 1, Early: 0, Misses: 0
9da-> Hits: 3, Late: 0, Early: 0, Misses: 0
9db-> Hits: 448, Late: 0, Early: 0, Misses: 0
9e2-> Hits: 0, Late: 0, Early: 0, Misses: 2
9e3-> Hits: 8, Late: 0, Early: 0, Misses: 0
9e9-> Hits: 4, Late: 0, Early: 0, Misses: 0
9eb-> Hits: 0, Late: 0, Early: 0, Misses: 5
9ef-> Hits: 331, Late: 67, Early: 0, Misses: 21
9f0-> Hits: 189, Late: 114, Early: 0, Misses: 0
9f1-> Hits: 1, Late: 0, Early: 0, Misses: 0
9f3-> Hits: 6, Late: 0, Early: 0, Misses: 0
9f8-> Hits: 253, Late: 72, Early: 0, Misses: 0
9fe-> Hits: 0, Late: 34, Early: 0, Misses: 6
a00-> Hits: 274, Late: 1, Early: 0, Misses: 0
a01-> Hits: 406, Late: 58, Early: 0, Misses: 21
a04-> Hits: 6, Late: 0, Early: 0, Misses: 0
a06-> Hits: 17, Late: 0, Early: 0, Misses: 0
a0b-> Hits: 10, Late: 0, Early: 0, Misses: 0
a0c-> Hits: 6, Late: 0, Early: 0, Misses: 0
a0d-> Hits: 261, Late: 68, Early: 0, Misses: 8
a11-> Hits: 4, Late: 0, Early: 0, Misses: 0
a1c-> Hits: 0, Late: 6, Early: 0, Misses: 0
a20-> Hits: 1269, Late: 1, Early: 0, Misses: 170
a25-> Hits: 6, Late: 0, Early: 0, Misses: 0
a2a-> Hits: 403, Late: 45, Early: 0, Misses: 40
a2b-> Hits: 17, Late: 0, Early: 0, Misses: 0
a2c-> Hits: 0, Late: 10, Early: 0, Misses: 0
a2e-> Hits: 6, Late: 0, Early: 0, Misses: 0
a31-> Hits: 475, Late: 0, Early: 0, Misses: 0
a37-> Hits: 0, Late: 6, Early: 0, Misses: 0
a38-> Hits: 414, Late: 62, Early: 0, Misses: 18
a3e-> Hits: 0, Late: 10, Early: 0, Misses: 0
a3f-> Hits: 6, Late: 0, Early: 0, Misses: 0
a40-> Hits: 60, Late: 0, Early: 0, Misses: 0
a42-> Hits: 14, Late: 0, Early: 0, Misses: 0
a43-> Hits: 1, Late: 1, Early: 0, Misses: 0
a46-> Hits: 389, Late: 50, Early: 0, Misses: 1
a47-> Hits: 4, Late: 0, Early: 0, Misses: 0
a4b-> Hits: 961, Late: 0, Early: 0, Misses: 0
a4c-> Hits: 90, Late: 0, Early: 0, Misses: 0
a4d-> Hits: 96, Late: 1, Early: 0, Misses: 0
a4f-> Hits: 5, Late: 0, Early: 0, Misses: 0
a50-> Hits: 0, Late: 0, Early: 0, Misses: 5
a57-> Hits: 22, Late: 0, Early: 0, Misses: 0
a58-> Hits: 0, Late: 0, Early: 0, Misses: 5
a5f-> Hits: 22, Late: 0, Early: 0, Misses: 0
a60-> Hits: 0, Late: 5, Early: 0, Misses: 0
a61-> Hits: 10, Late: 0, Early: 0, Misses: 0
a62-> Hits: 5, Late: 1, Early: 0, Misses: 0
a63-> Hits: 0, Late: 6, Early: 0, Misses: 0
a69-> Hits: 22, Late: 0, Early: 0, Misses: 0
a6c-> Hits: 22, Late: 0, Early: 0, Misses: 0
a6e-> Hits: 40, Late: 1, Early: 0, Misses: 25
a72-> Hits: 11, Late: 0, Early: 0, Misses: 0
a79-> Hits: 0, Late: 1, Early: 0, Misses: 4
a7a-> Hits: 9, Late: 0, Early: 0, Misses: 0
a7b-> Hits: 13, Late: 0, Early: 0, Misses: 0
a7e-> Hits: 34, Late: 5, Early: 0, Misses: 0
a80-> Hits: 0, Late: 6, Early: 0, Misses: 0
a81-> Hits: 2, Late: 0, Early: 0, Misses: 0
a82-> Hits: 5, Late: 0, Early: 0, Misses: 0
a87-> Hits: 12, Late: 0, Early: 0, Misses: 0
a88-> Hits: 1, Late: 5, Early: 0, Misses: 0
a90-> Hits: 402, Late: 8, Early: 0, Misses: 0
a92-> Hits: 12, Late: 0, Early: 0, Misses: 0
a94-> Hits: 3, Late: 0, Early: 0, Misses: 0
a98-> Hits: 6, Late: 0, Early: 0, Misses: 0
a99-> Hits: 16, Late: 0, Early: 0, Misses: 0
a9a-> Hits: 39, Late: 0, Early: 0, Misses: 0
a9b-> Hits: 206, Late: 44, Early: 0, Misses: 0
a9d-> Hits: 0, Late: 0, Early: 0, Misses: 5
a9f-> Hits: 22, Late: 0, Early: 0, Misses: 0
aa0-> Hits: 0, Late: 6, Early: 0, Misses: 0
aa4-> Hits: 1, Late: 0, Early: 0, Misses: 4
aa7-> Hits: 137, Late: 1, Early: 0, Misses: 0
aa8-> Hits: 0, Late: 6, Early: 0, Misses: 0
aa9-> Hits: 1, Late: 0, Early: 0, Misses: 0
aab-> Hits: 7, Late: 2, Early: 0, Misses: 0
aad-> Hits: 2, Late: 0, Early: 0, Misses: 0
aae-> Hits: 39, Late: 0, Early: 0, Misses: 0
aaf-> Hits: 165, Late: 39, Early: 0, Misses: 0
ab0-> Hits: 6, Late: 0, Early: 0, Misses: 0
ab1-> Hits: 20, Late: 1, Early: 0, Misses: 4
ab2-> Hits: 3, Late: 0, Early: 0, Misses: 0
ab7-> Hits: 6, Late: 0, Early: 0, Misses: 0
ab9-> Hits: 53, Late: 0, Early: 0, Misses: 0
abc-> Hits: 0, Late: 2, Early: 0, Misses: 3
abf-> Hits: 6, Late: 0, Early: 0, Misses: 0
ac0-> Hits: 2, Late: 1, Early: 0, Misses: 0
ac3-> Hits: 42, Late: 1, Early: 0, Misses: 0
ac4-> Hits: 3, Late: 0, Early: 0, Misses: 0
ac7-> Hits: 38, Late: 0, Early: 0, Misses: 0
ac8-> Hits: 1, Late: 1, Early: 0, Misses: 0
ac9-> Hits: 12, Late: 0, Early: 0, Misses: 1
acb-> Hits: 2, Late: 3, Early: 0, Misses: 0
acf-> Hits: 5, Late: 0, Early: 0, Misses: 0
ad5-> Hits: 89, Late: 1, Early: 0, Misses: 0
ad7-> Hits: 15, Late: 0, Early: 0, Misses: 0
ad9-> Hits: 1, Late: 0, Early: 0, Misses: 4
ada-> Hits: 0, Late: 0, Early: 0, Misses: 5
adc-> Hits: 2, Late: 8, Early: 0, Misses: 0
ae0-> Hits: 1, Late: 3, Early: 0, Misses: 0
ae2-> Hits: 6, Late: 0, Early: 0, Misses: 0
ae4-> Hits: 10, Late: 0, Early: 0, Misses: 0
ae5-> Hits: 2, Late: 6, Early: 0, Misses: 0
ae7-> Hits: 10, Late: 0, Early: 0, Misses: 0
ae8-> Hits: 0, Late: 6, Early: 0, Misses: 5
aee-> Hits: 4, Late: 0, Early: 0, Misses: 0
aef-> Hits: 18, Late: 6, Early: 0, Misses: 0
af3-> Hits: 328, Late: 40, Early: 0, Misses: 0
af7-> Hits: 36, Late: 0, Early: 0, Misses: 1
af8-> Hits: 39, Late: 0, Early: 0, Misses: 0
afb-> Hits: 245, Late: 0, Early: 0, Misses: 0
aff-> Hits: 23, Late: 0, Early: 0, Misses: 0
b00-> Hits: 1, Late: 0, Early: 0, Misses: 0
b01-> Hits: 5, Late: 0, Early: 0, Misses: 0
b04-> Hits: 564, Late: 0, Early: 0, Misses: 0
b07-> Hits: 7, Late: 0, Early: 0, Misses: 0
b08-> Hits: 0, Late: 6, Early: 0, Misses: 0
b09-> Hits: 6, Late: 0, Early: 0, Misses: 0
b0c-> Hits: 412, Late: 0, Early: 0, Misses: 0
b11-> Hits: 4, Late: 0, Early: 0, Misses: 0
b12-> Hits: 39, Late: 0, Early: 0, Misses: 0
b14-> Hits: 554, Late: 13, Early: 0, Misses: 2
b16-> Hits: 21, Late: 0, Early: 0, Misses: 0
b17-> Hits: 286, Late: 0, Early: 0, Misses: 0
b1c-> Hits: 8, Late: 0, Early: 0, Misses: 0
b20-> Hits: 0, Late: 6, Early: 0, Misses: 0
b21-> Hits: 843, Late: 0, Early: 0, Misses: 0
b24-> Hits: 10, Late: 0, Early: 0, Misses: 0
b26-> Hits: 39, Late: 0, Early: 0, Misses: 0
b27-> Hits: 4, Late: 0, Early: 0, Misses: 0
b28-> Hits: 0, Late: 6, Early: 0, Misses: 0
b29-> Hits: 5, Late: 0, Early: 0, Misses: 0
b2c-> Hits: 1959, Late: 40, Early: 0, Misses: 0
b30-> Hits: 293711, Late: 0, Early: 0, Misses: 96
b31-> Hits: 5, Late: 0, Early: 0, Misses: 0
b32-> Hits: 7, Late: 0, Early: 0, Misses: 0
b34-> Hits: 292171, Late: 5, Early: 0, Misses: 0
b38-> Hits: 285345, Late: 0, Early: 0, Misses: 4461
b3c-> Hits: 11, Late: 4, Early: 0, Misses: 0
b3f-> Hits: 173, Late: 1, Early: 0, Misses: 2
b40-> Hits: 67, Late: 0, Early: 0, Misses: 0
b41-> Hits: 16, Late: 0, Early: 0, Misses: 0
b48-> Hits: 0, Late: 3, Early: 0, Misses: 0
b49-> Hits: 0, Late: 0, Early: 0, Misses: 5
b4f-> Hits: 277, Late: 92, Early: 0, Misses: 0
b50-> Hits: 27446, Late: 112, Early: 0, Misses: 0
b52-> Hits: 1, Late: 0, Early: 0, Misses: 4
b55-> Hits: 27367, Late: 166, Early: 0, Misses: 0
b56-> Hits: 39, Late: 0, Early: 0, Misses: 0
b57-> Hits: 231, Late: 50, Early: 0, Misses: 0
b5b-> Hits: 1739, Late: 0, Early: 0, Misses: 0
b60-> Hits: 0, Late: 6, Early: 0, Misses: 0
b61-> Hits: 26271, Late: 798, Early: 0, Misses: 0
b67-> Hits: 10, Late: 0, Early: 0, Misses: 0
b6a-> Hits: 264, Late: 0, Early: 0, Misses: 0
b6d-> Hits: 23990, Late: 2466, Early: 0, Misses: 0
b70-> Hits: 5, Late: 0, Early: 0, Misses: 0
b76-> Hits: 1504, Late: 0, Early: 0, Misses: 0
b7c-> Hits: 798, Late: 0, Early: 0, Misses: 0
b7e-> Hits: 8, Late: 0, Early: 0, Misses: 0
b80-> Hits: 1, Late: 2, Early: 0, Misses: 0
b87-> Hits: 382, Late: 0, Early: 0, Misses: 0
b88-> Hits: 473, Late: 0, Early: 0, Misses: 0
b89-> Hits: 0, Late: 5, Early: 0, Misses: 0
b8a-> Hits: 5, Late: 0, Early: 0, Misses: 0
b8b-> Hits: 0, Late: 6, Early: 0, Misses: 0
b8c-> Hits: 6, Late: 0, Early: 0, Misses: 0
b91-> Hits: 0, Late: 0, Early: 0, Misses: 5
b92-> Hits: 6, Late: 0, Early: 0, Misses: 0
b93-> Hits: 2, Late: 4, Early: 0, Misses: 0
ba1-> Hits: 6, Late: 0, Early: 0, Misses: 0
ba2-> Hits: 287536, Late: 272, Early: 0, Misses: 0
ba3-> Hits: 0, Late: 5, Early: 0, Misses: 0
bab-> Hits: 6, Late: 0, Early: 0, Misses: 0
bae-> Hits: 898, Late: 0, Early: 0, Misses: 0
bb0-> Hits: 15196, Late: 189, Early: 0, Misses: 0
bb1-> Hits: 11, Late: 0, Early: 0, Misses: 0
bb2-> Hits: 5, Late: 0, Early: 0, Misses: 0
bb6-> Hits: 8094, Late: 486, Early: 0, Misses: 0
bb7-> Hits: 0, Late: 1, Early: 0, Misses: 4
bb9-> Hits: 9, Late: 0, Early: 0, Misses: 0
bbb-> Hits: 731, Late: 0, Early: 0, Misses: 0
bbc-> Hits: 15378, Late: 106, Early: 0, Misses: 0
bbd-> Hits: 1, Late: 4, Early: 0, Misses: 0
bbe-> Hits: 6, Late: 0, Early: 0, Misses: 0
bc1-> Hits: 16, Late: 0, Early: 0, Misses: 0
bc3-> Hits: 0, Late: 6, Early: 0, Misses: 0
bc7-> Hits: 3, Late: 0, Early: 0, Misses: 0
bc8-> Hits: 373, Late: 0, Early: 0, Misses: 0
bcd-> Hits: 0, Late: 0, Early: 0, Misses: 5
bcf-> Hits: 22, Late: 0, Early: 0, Misses: 0
bd3-> Hits: 3, Late: 2, Early: 0, Misses: 0
bd5-> Hits: 1297, Late: 0, Early: 0, Misses: 0
bd6-> Hits: 5, Late: 0, Early: 0, Misses: 0
bd9-> Hits: 6, Late: 0, Early: 0, Misses: 5
bdb-> Hits: 4, Late: 1, Early: 0, Misses: 0
bdd-> Hits: 6, Late: 0, Early: 0, Misses: 0
be1-> Hits: 508, Late: 0, Early: 0, Misses: 0
be3-> Hits: 10, Late: 0, Early: 0, Misses: 0
[...]
be9-> Hits: 836, Late: 0, Early: 0, Misses: 0
bea-> Hits: 15, Late: 0, Early: 0, Misses: 0
beb-> Hits: 5, Late: 0, Early: 0, Misses: 0
bec-> Hits: 18, Late: 0, Early: 0, Misses: 0
bed-> Hits: 11, Late: 0, Early: 0, Misses: 4
bf0-> Hits: 0, Late: 22, Early: 0, Misses: 0
bf3-> Hits: 0, Late: 3, Early: 0, Misses: 0
bf6-> Hits: 1739, Late: 0, Early: 0, Misses: 0
bf8-> Hits: 0, Late: 22, Early: 0, Misses: 0
bfe-> Hits: 1739, Late: 0, Early: 0, Misses: 0
c00-> Hits: 569, Late: 20, Early: 0, Misses: 2
c03-> Hits: 1, Late: 5, Early: 0, Misses: 0
c08-> Hits: 564, Late: 22, Early: 0, Misses: 0
c0b-> Hits: 17, Late: 0, Early: 0, Misses: 0
c0e-> Hits: 8, Late: 0, Early: 0, Misses: 0
c0f-> Hits: 2068, Late: 0, Early: 0, Misses: 0
c10-> Hits: 3022, Late: 0, Early: 0, Misses: 0
c13-> Hits: 1137, Late: 2, Early: 0, Misses: 0
c16-> Hits: 8, Late: 0, Early: 0, Misses: 0
c18-> Hits: 3590, Late: 0, Early: 0, Misses: 0
c19-> Hits: 5, Late: 0, Early: 0, Misses: 0
c1c-> Hits: 0, Late: 0, Early: 0, Misses: 5
c1d-> Hits: 12, Late: 0, Early: 0, Misses: 0
c1e-> Hits: 17, Late: 0, Early: 0, Misses: 0
c1f-> Hits: 22, Late: 0, Early: 0, Misses: 0
c21-> Hits: 586, Late: 0, Early: 0, Misses: 0
c23-> Hits: 11, Late: 0, Early: 0, Misses: 11
c25-> Hits: 27, Late: 0, Early: 0, Misses: 0
c27-> Hits: 11, Late: 0, Early: 0, Misses: 11
c28-> Hits: 457, Late: 0, Early: 0, Misses: 0
c29-> Hits: 38, Late: 0, Early: 0, Misses: 0
c2d-> Hits: 0, Late: 2, Early: 0, Misses: 0
c2f-> Hits: 5, Late: 1, Early: 0, Misses: 0
c30-> Hits: 6, Late: 0, Early: 0, Misses: 0
c32-> Hits: 38, Late: 0, Early: 0, Misses: 0
c36-> Hits: 6, Late: 0, Early: 0, Misses: 0
c40-> Hits: 5, Late: 0, Early: 0, Misses: 0
c41-> Hits: 6, Late: 0, Early: 0, Misses: 0
c44-> Hits: 38, Late: 0, Early: 0, Misses: 0
c45-> Hits: 6, Late: 0, Early: 0, Misses: 0
c48-> Hits: 475, Late: 0, Early: 0, Misses: 0
c4c-> Hits: 1, Late: 0, Early: 0, Misses: 5
c4f-> Hits: 470, Late: 0, Early: 0, Misses: 5
c50-> Hits: 98607, Late: 235, Early: 0, Misses: 0
c54-> Hits: 1, Late: 0, Early: 0, Misses: 5
c56-> Hits: 111813, Late: 456, Early: 0, Misses: 5
c57-> Hits: 6, Late: 0, Early: 0, Misses: 0
c58-> Hits: 481, Late: 0, Early: 0, Misses: 0
c5d-> Hits: 1, Late: 0, Early: 0, Misses: 0
c60-> Hits: 474, Late: 0, Early: 0, Misses: 1
c63-> Hits: 5, Late: 0, Early: 0, Misses: 1
c64-> Hits: 97710, Late: 188, Early: 0, Misses: 0
c68-> Hits: 457, Late: 56, Early: 0, Misses: 0
c6a-> Hits: 107646, Late: 484, Early: 0, Misses: 0
c6b-> Hits: 6, Late: 0, Early: 0, Misses: 0
c6e-> Hits: 1, Late: 5, Early: 0, Misses: 0
c72-> Hits: 0, Late: 5, Early: 0, Misses: 0
c73-> Hits: 3, Late: 0, Early: 0, Misses: 0
c75-> Hits: 31, Late: 0, Early: 0, Misses: 0
c77-> Hits: 5, Late: 0, Early: 0, Misses: 0
c78-> Hits: 6, Late: 0, Early: 0, Misses: 0
c81-> Hits: 32, Late: 0, Early: 0, Misses: 6
c82-> Hits: 38, Late: 0, Early: 0, Misses: 0
c84-> Hits: 38, Late: 0, Early: 0, Misses: 0
c85-> Hits: 6, Late: 0, Early: 0, Misses: 0
c86-> Hits: 38, Late: 0, Early: 0, Misses: 0
c88-> Hits: 38, Late: 0, Early: 0, Misses: 0
c89-> Hits: 5, Late: 0, Early: 0, Misses: 0
c8a-> Hits: 33, Late: 4, Early: 0, Misses: 6
c8b-> Hits: 38, Late: 0, Early: 0, Misses: 0
c92-> Hits: 2129, Late: 0, Early: 0, Misses: 0
c94-> Hits: 6, Late: 0, Early: 0, Misses: 0
c97-> Hits: 11, Late: 0, Early: 0, Misses: 0
c9a-> Hits: 0, Late: 0, Early: 0, Misses: 5
c9c-> Hits: 6, Late: 0, Early: 0, Misses: 0
ca0-> Hits: 33543, Late: 45, Early: 0, Misses: 0
ca2-> Hits: 0, Late: 0, Early: 0, Misses: 5
ca4-> Hits: 3, Late: 0, Early: 0, Misses: 0
ca5-> Hits: 6, Late: 0, Early: 0, Misses: 0
ca8-> Hits: 33502, Late: 82, Early: 0, Misses: 0
cab-> Hits: 6, Late: 0, Early: 0, Misses: 0
cb5-> Hits: 6, Late: 0, Early: 0, Misses: 0
cb6-> Hits: 6, Late: 0, Early: 0, Misses: 0
cb7-> Hits: 5, Late: 0, Early: 0, Misses: 0
cb9-> Hits: 17, Late: 0, Early: 0, Misses: 0
cba-> Hits: 6, Late: 0, Early: 0, Misses: 0
cc2-> Hits: 1, Late: 0, Early: 0, Misses: 0
cc4-> Hits: 10, Late: 1, Early: 0, Misses: 26
cc5-> Hits: 39, Late: 0, Early: 0, Misses: 0
cc8-> Hits: 6, Late: 0, Early: 0, Misses: 0
cca-> Hits: 6, Late: 0, Early: 0, Misses: 5
cd0-> Hits: 26, Late: 0, Early: 0, Misses: 0
cd3-> Hits: 3, Late: 3, Early: 0, Misses: 0
cd8-> Hits: 6, Late: 0, Early: 0, Misses: 0
cdb-> Hits: 6, Late: 0, Early: 0, Misses: 0
ce0-> Hits: 689, Late: 37, Early: 0, Misses: 0
cea-> Hits: 3, Late: 3, Early: 0, Misses: 0
cf0-> Hits: 2, Late: 0, Early: 0, Misses: 3
cf5-> Hits: 6, Late: 0, Early: 0, Misses: 0
cf7-> Hits: 1, Late: 0, Early: 0, Misses: 0
cff-> Hits: 6, Late: 0, Early: 0, Misses: 0
d04-> Hits: 6, Late: 0, Early: 0, Misses: 0
d07-> Hits: 0, Late: 5, Early: 0, Misses: 0
d0a-> Hits: 4, Late: 0, Early: 0, Misses: 0
d10-> Hits: 6245, Late: 805, Early: 0, Misses: 0
d15-> Hits: 6734, Late: 2076, Early: 0, Misses: 0
d16-> Hits: 475, Late: 0, Early: 0, Misses: 0
d17-> Hits: 5, Late: 0, Early: 0, Misses: 0
d1f-> Hits: 5, Late: 0, Early: 0, Misses: 0
d20-> Hits: 39, Late: 0, Early: 0, Misses: 0
d22-> Hits: 1154, Late: 0, Early: 0, Misses: 0
d23-> Hits: 5938, Late: 386, Early: 0, Misses: 0
d24-> Hits: 0, Late: 5, Early: 0, Misses: 0
d26-> Hits: 6, Late: 0, Early: 0, Misses: 0
d28-> Hits: 7967, Late: 794, Early: 0, Misses: 0
d2a-> Hits: 263, Late: 0, Early: 0, Misses: 0
d2c-> Hits: 0, Late: 5, Early: 0, Misses: 0
d30-> Hits: 7436, Late: 76, Early: 0, Misses: 0
d31-> Hits: 17, Late: 0, Early: 0, Misses: 0
d34-> Hits: 5, Late: 0, Early: 0, Misses: 0
d35-> Hits: 4, Late: 1, Early: 0, Misses: 4
d39-> Hits: 415, Late: 77, Early: 0, Misses: 11
d3b-> Hits: 1, Late: 0, Early: 0, Misses: 21
d40-> Hits: 392, Late: 0, Early: 0, Misses: 21
d44-> Hits: 14, Late: 0, Early: 0, Misses: 0
d45-> Hits: 398, Late: 0, Early: 0, Misses: 0
d47-> Hits: 3, Late: 0, Early: 0, Misses: 2
d4b-> Hits: 1077846, Late: 2084, Early: 0, Misses: 40
d50-> Hits: 280, Late: 35, Early: 0, Misses: 0
d51-> Hits: 384, Late: 0, Early: 0, Misses: 0
d56-> Hits: 0, Late: 0, Early: 0, Misses: 5
d58-> Hits: 15, Late: 0, Early: 0, Misses: 0
d5d-> Hits: 385, Late: 0, Early: 0, Misses: 0
d5f-> Hits: 7512, Late: 0, Early: 0, Misses: 0
d62-> Hits: 364, Late: 0, Early: 0, Misses: 0
d63-> Hits: 5, Late: 0, Early: 0, Misses: 0
d64-> Hits: 6, Late: 0, Early: 0, Misses: 0
d66-> Hits: 386, Late: 0, Early: 0, Misses: 0
d68-> Hits: 11, Late: 0, Early: 0, Misses: 3
d6a-> Hits: 4698, Late: 0, Early: 0, Misses: 0
d6f-> Hits: 11, Late: 34, Early: 0, Misses: 0
d77-> Hits: 0, Late: 39, Early: 0, Misses: 0
d7b-> Hits: 1, Late: 0, Early: 0, Misses: 0
d7e-> Hits: 6, Late: 0, Early: 0, Misses: 0
d90-> Hits: 6, Late: 0, Early: 0, Misses: 0
d97-> Hits: 13, Late: 0, Early: 0, Misses: 0
d98-> Hits: 1, Late: 0, Early: 0, Misses: 4
d9e-> Hits: 413, Late: 78, Early: 0, Misses: 5
da2-> Hits: 6, Late: 0, Early: 0, Misses: 0
da3-> Hits: 3610, Late: 0, Early: 0, Misses: 0
da8-> Hits: 6, Late: 0, Early: 0, Misses: 0
dab-> Hits: 3610, Late: 0, Early: 0, Misses: 0
dad-> Hits: 3627, Late: 0, Early: 0, Misses: 0
daf-> Hits: 6, Late: 0, Early: 0, Misses: 0
db0-> Hits: 6, Late: 0, Early: 0, Misses: 0
db6-> Hits: 18, Late: 0, Early: 0, Misses: 0
db8-> Hits: 2617, Late: 0, Early: 0, Misses: 0
dbd-> Hits: 6, Late: 0, Early: 0, Misses: 0
dc0-> Hits: 3228, Late: 0, Early: 0, Misses: 0
dc2-> Hits: 10, Late: 0, Early: 0, Misses: 0
dc4-> Hits: 480, Late: 0, Early: 0, Misses: 0
dc5-> Hits: 0, Late: 0, Early: 0, Misses: 5
dc8-> Hits: 3603, Late: 0, Early: 0, Misses: 0
dc9-> Hits: 6, Late: 0, Early: 0, Misses: 0
dcc-> Hits: 480, Late: 0, Early: 0, Misses: 0
dd0-> Hits: 3610, Late: 5, Early: 0, Misses: 0
dd4-> Hits: 11, Late: 0, Early: 0, Misses: 0
ddc-> Hits: 485, Late: 0, Early: 0, Misses: 0
dde-> Hits: 12, Late: 0, Early: 0, Misses: 0
de0-> Hits: 2090, Late: 0, Early: 0, Misses: 0
de4-> Hits: 93, Late: 0, Early: 0, Misses: 0
de6-> Hits: 3610, Late: 0, Early: 0, Misses: 0
de8-> Hits: 6, Late: 0, Early: 0, Misses: 0
dea-> Hits: 6, Late: 0, Early: 0, Misses: 0
deb-> Hits: 453, Late: 0, Early: 0, Misses: 0
dec-> Hits: 4, Late: 0, Early: 0, Misses: 0
def-> Hits: 2, Late: 0, Early: 0, Misses: 0
df3-> Hits: 1565, Late: 0, Early: 0, Misses: 0
df4-> Hits: 162, Late: 0, Early: 0, Misses: 0
df5-> Hits: 1707, Late: 0, Early: 0, Misses: 0
dfa-> Hits: 11, Late: 0, Early: 0, Misses: 0
dfb-> Hits: 3012, Late: 0, Early: 0, Misses: 0
e01-> Hits: 4, Late: 0, Early: 0, Misses: 0
e08-> Hits: 235, Late: 1, Early: 0, Misses: 2
e09-> Hits: 6, Late: 0, Early: 0, Misses: 0
e0a-> Hits: 0, Late: 0, Early: 0, Misses: 22
e0b-> Hits: 811, Late: 0, Early: 0, Misses: 0
e0c-> Hits: 12, Late: 0, Early: 0, Misses: 0
e0e-> Hits: 12, Late: 0, Early: 0, Misses: 7
e13-> Hits: 587, Late: 0, Early: 0, Misses: 0
e14-> Hits: 4, Late: 0, Early: 0, Misses: 0
e15-> Hits: 10, Late: 0, Early: 0, Misses: 0
e1b-> Hits: 1142, Late: 0, Early: 0, Misses: 0
e1e-> Hits: 6, Late: 0, Early: 0, Misses: 0
e20-> Hits: 485, Late: 0, Early: 0, Misses: 0
e25-> Hits: 5, Late: 0, Early: 0, Misses: 0
e26-> Hits: 8, Late: 0, Early: 0, Misses: 14
e30-> Hits: 2447, Late: 0, Early: 0, Misses: 4
e33-> Hits: 11, Late: 45, Early: 0, Misses: 0
e34-> Hits: 22, Late: 0, Early: 0, Misses: 0
e36-> Hits: 171, Late: 0, Early: 0, Misses: 0
e37-> Hits: 0, Late: 6, Early: 0, Misses: 0
e38-> Hits: 352, Late: 6, Early: 0, Misses: 0
e39-> Hits: 5, Late: 0, Early: 0, Misses: 0
e3a-> Hits: 6, Late: 0, Early: 0, Misses: 0
e3c-> Hits: 6, Late: 0, Early: 0, Misses: 0
e3e-> Hits: 2722, Late: 0, Early: 0, Misses: 0
e40-> Hits: 6, Late: 0, Early: 0, Misses: 0
e41-> Hits: 8, Late: 0, Early: 0, Misses: 3
e42-> Hits: 17, Late: 0, Early: 0, Misses: 0
e44-> Hits: 274, Late: 2, Early: 0, Misses: 0
e45-> Hits: 305, Late: 0, Early: 0, Misses: 0
e46-> Hits: 319, Late: 0, Early: 0, Misses: 20
e48-> Hits: 640, Late: 0, Early: 0, Misses: 0
e4a-> Hits: 324, Late: 0, Early: 0, Misses: 0
e4b-> Hits: 1172, Late: 0, Early: 0, Misses: 0
e4c-> Hits: 347, Late: 0, Early: 0, Misses: 0
e4e-> Hits: 445, Late: 0, Early: 0, Misses: 0
e50-> Hits: 2, Late: 1, Early: 0, Misses: 2
e57-> Hits: 1023, Late: 0, Early: 0, Misses: 0
e5c-> Hits: 13, Late: 0, Early: 0, Misses: 11
e60-> Hits: 1016, Late: 0, Early: 0, Misses: 0
e64-> Hits: 2, Late: 0, Early: 0, Misses: 3
e6c-> Hits: 0, Late: 22, Early: 0, Misses: 0
e71-> Hits: 496, Late: 1, Early: 0, Misses: 5
e73-> Hits: 5, Late: 0, Early: 0, Misses: 0
e77-> Hits: 11, Late: 0, Early: 0, Misses: 0
e7e-> Hits: 4, Late: 0, Early: 0, Misses: 0
e7f-> Hits: 3, Late: 0, Early: 0, Misses: 1
e87-> Hits: 3, Late: 0, Early: 0, Misses: 2
e89-> Hits: 5, Late: 0, Early: 0, Misses: 0
e8c-> Hits: 28, Late: 0, Early: 0, Misses: 0
e8d-> Hits: 436, Late: 0, Early: 0, Misses: 0
e8e-> Hits: 472, Late: 1, Early: 0, Misses: 0
e8f-> Hits: 478, Late: 0, Early: 0, Misses: 0
e90-> Hits: 6, Late: 0, Early: 0, Misses: 0
e91-> Hits: 483, Late: 0, Early: 0, Misses: 0
e93-> Hits: 2238, Late: 0, Early: 0, Misses: 0
e94-> Hits: 3649, Late: 0, Early: 0, Misses: 0
e95-> Hits: 494, Late: 0, Early: 0, Misses: 0
e96-> Hits: 17, Late: 0, Early: 0, Misses: 0
e97-> Hits: 494, Late: 0, Early: 0, Misses: 0
e98-> Hits: 470, Late: 0, Early: 0, Misses: 0
e9f-> Hits: 3422, Late: 0, Early: 0, Misses: 0
ea0-> Hits: 6, Late: 0, Early: 0, Misses: 0
ea1-> Hits: 5, Late: 0, Early: 0, Misses: 0
ea3-> Hits: 15, Late: 0, Early: 0, Misses: 0
ea7-> Hits: 2564, Late: 0, Early: 0, Misses: 0
ea9-> Hits: 0, Late: 0, Early: 0, Misses: 5
eb0-> Hits: 6, Late: 0, Early: 0, Misses: 0
eb1-> Hits: 986, Late: 0, Early: 0, Misses: 0
eb5-> Hits: 5, Late: 0, Early: 0, Misses: 0
eb7-> Hits: 5, Late: 0, Early: 0, Misses: 0
eb9-> Hits: 2153, Late: 82, Early: 0, Misses: 0
eba-> Hits: 6, Late: 0, Early: 0, Misses: 0
ebb-> Hits: 3612, Late: 37, Early: 0, Misses: 0
ebe-> Hits: 320, Late: 3, Early: 0, Misses: 0
ebf-> Hits: 3694, Late: 0, Early: 0, Misses: 0
ec0-> Hits: 16460, Late: 241, Early: 0, Misses: 0
ec1-> Hits: 17, Late: 0, Early: 0, Misses: 0
ec4-> Hits: 1, Late: 4, Early: 0, Misses: 0
ec5-> Hits: 1127, Late: 0, Early: 0, Misses: 0
ec9-> Hits: 14713, Late: 86, Early: 0, Misses: 0
ecc-> Hits: 2, Late: 0, Early: 0, Misses: 3
ecd-> Hits: 6, Late: 0, Early: 0, Misses: 0
ed0-> Hits: 407, Late: 89, Early: 0, Misses: 0
ed1-> Hits: 15, Late: 0, Early: 0, Misses: 0
ed8-> Hits: 3480, Late: 4, Early: 0, Misses: 0
edb-> Hits: 6, Late: 0, Early: 0, Misses: 0
ede-> Hits: 50, Late: 0, Early: 0, Misses: 0
edf-> Hits: 0, Late: 5, Early: 0, Misses: 0
ee0-> Hits: 5, Late: 0, Early: 0, Misses: 0
ee1-> Hits: 3426, Late: 0, Early: 0, Misses: 0
ee4-> Hits: 413, Late: 63, Early: 0, Misses: 20
ee5-> Hits: 179, Late: 0, Early: 0, Misses: 0
ee9-> Hits: 3063, Late: 0, Early: 0, Misses: 0
eec-> Hits: 6, Late: 0, Early: 0, Misses: 11
eed-> Hits: 218, Late: 39, Early: 0, Misses: 21
ef0-> Hits: 124, Late: 8, Early: 0, Misses: 7
ef8-> Hits: 2475, Late: 0, Early: 0, Misses: 0
ef9-> Hits: 237, Late: 67, Early: 0, Misses: 14
eff-> Hits: 124, Late: 0, Early: 0, Misses: 27
f01-> Hits: 3114, Late: 0, Early: 0, Misses: 0
f04-> Hits: 1723, Late: 16, Early: 0, Misses: 0
f09-> Hits: 3649, Late: 0, Early: 0, Misses: 0
f0b-> Hits: 5, Late: 0, Early: 0, Misses: 12
f0c-> Hits: 1745, Late: 0, Early: 0, Misses: 0
f10-> Hits: 2, Late: 0, Early: 0, Misses: 1
f13-> Hits: 5, Late: 0, Early: 0, Misses: 12
f14-> Hits: 5, Late: 0, Early: 0, Misses: 0
f15-> Hits: 496, Late: 0, Early: 0, Misses: 0
f1c-> Hits: 859, Late: 2672, Early: 0, Misses: 79
f1f-> Hits: 5, Late: 0, Early: 0, Misses: 0
f20-> Hits: 77407, Late: 0, Early: 0, Misses: 0
f26-> Hits: 17922, Late: 0, Early: 0, Misses: 0
f27-> Hits: 3, Late: 0, Early: 0, Misses: 5
f28-> Hits: 2792, Late: 0, Early: 0, Misses: 0
f29-> Hits: 495, Late: 0, Early: 0, Misses: 0
f2a-> Hits: 5, Late: 0, Early: 0, Misses: 0
f2f-> Hits: 21, Late: 0, Early: 0, Misses: 0
f30-> Hits: 3627, Late: 22, Early: 0, Misses: 0
f31-> Hits: 55, Late: 0, Early: 0, Misses: 0
f32-> Hits: 5, Late: 0, Early: 0, Misses: 0
f33-> Hits: 80399, Late: 0, Early: 0, Misses: 0
f37-> Hits: 3615, Late: 39, Early: 0, Misses: 0
f39-> Hits: 2548, Late: 0, Early: 0, Misses: 0
f3f-> Hits: 553, Late: 0, Early: 0, Misses: 0
f41-> Hits: 2055, Late: 0, Early: 0, Misses: 0
f45-> Hits: 5, Late: 0, Early: 0, Misses: 0
f48-> Hits: 567, Late: 0, Early: 0, Misses: 0
f49-> Hits: 1889, Late: 140, Early: 0, Misses: 22
f4f-> Hits: 470, Late: 0, Early: 0, Misses: 0
f51-> Hits: 5, Late: 0, Early: 0, Misses: 11
f52-> Hits: 495, Late: 0, Early: 0, Misses: 0
f53-> Hits: 495, Late: 0, Early: 0, Misses: 0
f54-> Hits: 496, Late: 0, Early: 0, Misses: 0
f56-> Hits: 126, Late: 14, Early: 0, Misses: 2
f57-> Hits: 1, Late: 0, Early: 0, Misses: 0
f58-> Hits: 2034, Late: 22, Early: 0, Misses: 0
f59-> Hits: 17, Late: 0, Early: 0, Misses: 0
f5b-> Hits: 0, Late: 0, Early: 0, Misses: 5
f5f-> Hits: 470, Late: 0, Early: 0, Misses: 0
f69-> Hits: 6, Late: 0, Early: 0, Misses: 0
f6a-> Hits: 1, Late: 0, Early: 0, Misses: 0
f70-> Hits: 15830, Late: 1926, Early: 0, Misses: 0
f74-> Hits: 1120, Late: 0, Early: 0, Misses: 0
f75-> Hits: 7878, Late: 2329, Early: 0, Misses: 0
f78-> Hits: 11, Late: 0, Early: 0, Misses: 0
f79-> Hits: 16589, Late: 113, Early: 0, Misses: 0
f7b-> Hits: 5, Late: 0, Early: 0, Misses: 0
f7c-> Hits: 1519, Late: 0, Early: 0, Misses: 0
f84-> Hits: 775, Late: 0, Early: 0, Misses: 15
f86-> Hits: 0, Late: 0, Early: 0, Misses: 5
f88-> Hits: 5, Late: 0, Early: 0, Misses: 0
f8b-> Hits: 234, Late: 10, Early: 0, Misses: 0
f8e-> Hits: 6, Late: 0, Early: 0, Misses: 0
f90-> Hits: 292, Late: 0, Early: 0, Misses: 0
f91-> Hits: 0, Late: 0, Early: 0, Misses: 5
f97-> Hits: 0, Late: 5, Early: 0, Misses: 0
f9b-> Hits: 5, Late: 0, Early: 0, Misses: 0
f9f-> Hits: 211, Late: 0, Early: 0, Misses: 0
faa-> Hits: 5, Late: 0, Early: 0, Misses: 0
fab-> Hits: 115838, Late: 525, Early: 0, Misses: 1
fae-> Hits: 548, Late: 32, Early: 0, Misses: 0
fb2-> Hits: 5, Late: 0, Early: 0, Misses: 0
fb5-> Hits: 65517, Late: 213, Early: 0, Misses: 0
fbb-> Hits: 189, Late: 33, Early: 0, Misses: 2
fbe-> Hits: 5, Late: 0, Early: 0, Misses: 0
fc0-> Hits: 106, Late: 0, Early: 0, Misses: 0
fc1-> Hits: 148101, Late: 5, Early: 0, Misses: 0
fc5-> Hits: 5, Late: 0, Early: 0, Misses: 0
fc9-> Hits: 15, Late: 0, Early: 0, Misses: 0
fce-> Hits: 0, Late: 0, Early: 0, Misses: 5
fcf-> Hits: 228, Late: 33, Early: 0, Misses: 0
fd8-> Hits: 5, Late: 0, Early: 0, Misses: 0
fde-> Hits: 1739, Late: 0, Early: 0, Misses: 0
fdf-> Hits: 17, Late: 0, Early: 0, Misses: 0
fe5-> Hits: 5, Late: 0, Early: 0, Misses: 0
ff7-> Hits: 15, Late: 0, Early: 0, Misses: 0
ff8-> Hits: 949, Late: 0, Early: 0, Misses: 0
Total misses (from ip) 96574
Total accesses (misses) 12046069 96574
Pref: Addr 0 IP 0 Current 0
 All Calls: 1205993
 Critical Calls: 1205993
------------------
Depth Distribution
------------------
depth 0: 0
depth 1: 1211437
depth 2: 1029302
depth 3: 869959
depth 4: 733379
depth 5: 600181
depth 6: 488081
depth 7: 390328
depth 8: 304363
depth 9: 227219
depth 10: 168566
depth 11: 120818
depth 12: 82618
depth 13: 42441
depth 14: 9214
depth 15: 8502
depth 16: 0
depth 17: 0
depth 18: 0
depth 19: 0
depth 20: 0
depth 21: 0
depth 22: 0
depth 23: 0
depth 24: 0
depth 25: 0
depth 26: 0
depth 27: 0
depth 28: 0
depth 29: 0
Total: 6286408
-----------------------------
-----------------------------
	Captured at Filter
-----------------------------
depth 0: 0
depth 1: 15973
depth 2: 13223
depth 3: 12135
depth 4: 10980
depth 5: 9153
depth 6: 7471
depth 7: 6226
depth 8: 5025
depth 9: 3897
depth 10: 2948
depth 11: 2211
depth 12: 1446
depth 13: 724
depth 14: 134
depth 15: 135
depth 16: 0
depth 17: 0
depth 18: 0
depth 19: 0
depth 20: 0
depth 21: 0
depth 22: 0
depth 23: 0
depth 24: 0
depth 25: 0
depth 26: 0
depth 27: 0
depth 28: 0
depth 29: 0
-----------------------------
-----------------------------
		Lost at Page
-----------------------------
depth 0: 0
depth 1: 23449
depth 2: 35510
depth 3: 45546
depth 4: 52199
depth 5: 54573
depth 6: 54902
depth 7: 52556
depth 8: 48221
depth 9: 40574
depth 10: 33995
depth 11: 27275
depth 12: 20369
depth 13: 11441
depth 14: 2695
depth 15: 2897
depth 16: 3
depth 17: 0
depth 18: 0
depth 19: 0
depth 20: 0
depth 21: 0
depth 22: 0
depth 23: 0
depth 24: 0
depth 25: 0
depth 26: 0
depth 27: 0
depth 28: 0
depth 29: 0
-----------------------------
-----------------------------
	Lost due to PQ Size
-----------------------------
80817
-----------------------------
ST read accesses: 604180
ST write accesses: 6390
PT read accesses: 20787324
PT write accesses: 904226
FILTER read accesses: 4447232
FILTER write accesses: 1058049
GHR read accesses: 1432638
GHR write accesses: 257251
GHR counter read accesses: 17617856
GHR counter write accesses: 1092940
ST tag read accesses: 238094531
ST tag write accesses: 3695795

DRAM Statistics
 CHANNEL 0
 RQ ROW_BUFFER_HIT:      64344  ROW_BUFFER_MISS:     160006
 DBUS_CONGESTED:        597
 WQ ROW_BUFFER_HIT:      37016  ROW_BUFFER_MISS:     120797  FULL:       4394

 AVG_CONGESTED_CYCLE: 6
 All warmup complete: 2
Channel 0 Bank busy for read cycles: 0
Channel 0 Bank busy for write cycles: 0
Channel 0
Rank 0
0banks busy for read cycles: 54411978
0banks busy for write cycles: 14761
1banks busy for read cycles: 7565982
1banks busy for write cycles: 1966511
2banks busy for read cycles: 2189811
2banks busy for write cycles: 619899
3banks busy for read cycles: 775881
3banks busy for write cycles: 403524
4banks busy for read cycles: 460613
4banks busy for write cycles: 317511
5banks busy for read cycles: 292938
5banks busy for write cycles: 272006
6banks busy for read cycles: 280671
6banks busy for write cycles: 268162
7banks busy for read cycles: 318208
7banks busy for write cycles: 389457
8banks busy for read cycles: 828330
8banks busy for write cycles: 2334782

CPU 0 Branch Prediction Accuracy: 89.5273% MPKI: 10.1236 Average ROB Occupancy at Mispredict: 9.57631
Branch types
NOT_BRANCH: 45166347 90.3327%
BRANCH_DIRECT_JUMP: 218937 0.437874%
BRANCH_INDIRECT: 883 0.001766%
BRANCH_CONDITIONAL: 4597730 9.19546%
BRANCH_DIRECT_CALL: 7904 0.015808%
BRANCH_INDIRECT_CALL: 0 0%
BRANCH_RETURN: 7905 0.01581%
BRANCH_OTHER: 0 0%

DRAM PAGES: 1048576
Allocated PAGES: 2350
