Initialize SIGNATURE TABLE
ST_SET: 1
ST_WAY: 256
ST_TAG_BIT: 16
ST_TAG_MASK: ffff

Initialize PATTERN TABLE
PT_SET: 512
PT_WAY: 4
SIG_DELTA_BIT: 7
C_SIG_BIT: 4
C_DELTA_BIT: 4

Initialize PREFETCH FILTER
FILTER_SET: 1024

*** ChampSim Multicore Out-of-Order Simulator ***

Warmup Instructions: 50000000
Simulation Instructions: 50000000
Number of CPUs: 1
LLC sets: 2048
LLC ways: 16
Off-chip DRAM Size: 4096 MB Channels: 1 Width: 64-bit Data Rate: 6400 MT/s
CPU 0 runs ./tracer/traces/602.gcc_s-734B.champsimtrace.xz
.xz
CPU 0 Bimodal branch predictor
BTB has LRU replacement policy
ITLB has LRU replacement policy
DTLB has LRU replacement policy
STLB has LRU replacement policy
L1I has LRU replacement policy
CPU 0 L1D IP-based stride prefetcher
L1D has LRU replacement policy
ST_WAYS: 256
PT_SETS: 512
Initialize SRRIP state for L2C
Heartbeat CPU 0 instructions: 10000002 cycles: 3229363 heartbeat IPC: 3.09659 cumulative IPC: 3.09659 (Simulation time: 0 hr 0 min 33 sec) 
Heartbeat CPU 0 instructions: 20000002 cycles: 6472178 heartbeat IPC: 3.08374 cumulative IPC: 3.09015 (Simulation time: 0 hr 1 min 15 sec) 
Heartbeat CPU 0 instructions: 30000000 cycles: 9692508 heartbeat IPC: 3.10527 cumulative IPC: 3.09517 (Simulation time: 0 hr 2 min 4 sec) 
Heartbeat CPU 0 instructions: 40000002 cycles: 12938872 heartbeat IPC: 3.08037 cumulative IPC: 3.09146 (Simulation time: 0 hr 2 min 53 sec) 
Heartbeat CPU 0 instructions: 50000000 cycles: 16161228 heartbeat IPC: 3.10332 cumulative IPC: 3.09382 (Simulation time: 0 hr 3 min 43 sec) 

Warmup complete CPU 0 instructions: 50000001 cycles: 16161229 (Simulation time: 0 hr 3 min 43 sec) 

Heartbeat CPU 0 instructions: 60000000 cycles: 41057327 heartbeat IPC: 0.401669 cumulative IPC: 0.401669 (Simulation time: 0 hr 5 min 7 sec) 
Heartbeat CPU 0 instructions: 70000002 cycles: 66991810 heartbeat IPC: 0.385587 cumulative IPC: 0.393464 (Simulation time: 0 hr 6 min 29 sec) 
Heartbeat CPU 0 instructions: 80000000 cycles: 91857401 heartbeat IPC: 0.402162 cumulative IPC: 0.396321 (Simulation time: 0 hr 7 min 30 sec) 
Heartbeat CPU 0 instructions: 90000000 cycles: 116887593 heartbeat IPC: 0.399518 cumulative IPC: 0.397115 (Simulation time: 0 hr 8 min 32 sec) 
Heartbeat CPU 0 instructions: 100000000 cycles: 147064396 heartbeat IPC: 0.33138 cumulative IPC: 0.381962 (Simulation time: 0 hr 9 min 41 sec) 
Finished CPU 0 instructions: 50000003 cycles: 130903168 cumulative IPC: 0.381962 (Simulation time: 0 hr 9 min 41 sec) 

ChampSim completed all CPUs

Region of Interest Statistics

CPU 0 cumulative IPC: 0.381962 instructions: 50000003 cycles: 130903168
ITLB TOTAL     ACCESS:    7743980  HIT:    7743970  MISS:         10  HIT %:    99.9999  MISS %: 0.000129133   MPKI: 0.0002
ITLB LOAD TRANSLATION ACCESS:    7743980  HIT:    7743970  MISS:         10  HIT %:    99.9999  MISS %: 0.000129133   MPKI: 0.0002
ITLB PREFETCH  REQUESTED:          0  ISSUED:          0  USEFUL:          0  USELESS:          0
ITLB USEFUL LOAD PREFETCHES:          0 PREFETCH ISSUED TO LOWER LEVEL:          0  ACCURACY: -nan
ITLB TIMELY PREFETCHES:          0 LATE PREFETCHES: 0 DROPPED PREFETCHES: 0
ITLB PREFETCHES SAME FILL-ORIGIN LEVEL: 0 DIFFERENT FILL-ORIGIN LEVEL: 0
ITLB AVERAGE MISS LATENCY: 307.4 cycles
ITLB RQ	ACCESS:    8343856	FORWARD:          0	MERGED:     599872	TO_CACHE:    7743984

DTLB TOTAL     ACCESS:   14259102  HIT:   14233498  MISS:      25604  HIT %:    99.8204  MISS %:   0.179562   MPKI: 0.51208
DTLB LOAD TRANSLATION ACCESS:   14259102  HIT:   14233498  MISS:      25604  HIT %:    99.8204  MISS %:   0.179562   MPKI: 0.51208
DTLB PREFETCH  REQUESTED:          0  ISSUED:          0  USEFUL:          0  USELESS:          0
DTLB USEFUL LOAD PREFETCHES:          0 PREFETCH ISSUED TO LOWER LEVEL:          0  ACCURACY: -nan
DTLB TIMELY PREFETCHES:          0 LATE PREFETCHES: 0 DROPPED PREFETCHES: 0
DTLB PREFETCHES SAME FILL-ORIGIN LEVEL: 0 DIFFERENT FILL-ORIGIN LEVEL: 0
DTLB AVERAGE MISS LATENCY: 92.5402 cycles
DTLB RQ	ACCESS:   14606186	FORWARD:          0	MERGED:     346722	TO_CACHE:   14259464

STLB TOTAL     ACCESS:    2820530  HIT:    2801617  MISS:      18913  HIT %:    99.3295  MISS %:   0.670548   MPKI: 0.37826
STLB LOAD TRANSLATION ACCESS:      25614  HIT:       6701  MISS:      18913  HIT %:    26.1615  MISS %:    73.8385   MPKI: 0.37826
STLB TRANSLATION FROM L1D PREFETCHER ACCESS:    2794916  HIT:    2794916  MISS:          0  HIT %:        100  MISS %:          0   MPKI: 0
STLB PREFETCH  REQUESTED:          0  ISSUED:          0  USEFUL:          0  USELESS:          0
STLB USEFUL LOAD PREFETCHES:          0 PREFETCH ISSUED TO LOWER LEVEL:          0  ACCURACY: -nan
STLB TIMELY PREFETCHES:          0 LATE PREFETCHES: 0 DROPPED PREFETCHES: 0
STLB PREFETCHES SAME FILL-ORIGIN LEVEL: 0 DIFFERENT FILL-ORIGIN LEVEL: 0
STLB AVERAGE MISS LATENCY: 113.24 cycles
STLB RQ	ACCESS:    8288965	FORWARD:          0	MERGED:    5468435	TO_CACHE:    2820530

STLB Hit, L1D data hit: 0
STLB Hit, L2C data hit: 0
STLB Hit, LLC data hit: 0
STLB Hit, LLC data miss: 0
STLB STLB hints to L2: 0
L1D TOTAL     ACCESS:   22487669  HIT:   21542730  MISS:     944939  HIT %:     95.798  MISS %:    4.20203   MPKI: 18.8988
L1D LOAD      ACCESS:    9788361  HIT:    9648411  MISS:     139950  HIT %:    98.5702  MISS %:    1.42976   MPKI: 2.799
L1D RFO       ACCESS:    4790430  HIT:    4789157  MISS:       1273  HIT %:    99.9734  MISS %:  0.0265738   MPKI: 0.02546
L1D PREFETCH  ACCESS:    7908878  HIT:    7105162  MISS:     803716  HIT %:    89.8378  MISS %:    10.1622   MPKI: 16.0743
AGUS PREFETCH L1 MISS: 0
L1D PREFETCH  REQUESTED:   16582881  ISSUED:   16582881  USEFUL:     790902  USELESS:      12803
L1D USEFUL LOAD PREFETCHES:     790902 PREFETCH ISSUED TO LOWER LEVEL:     852820  ACCURACY: 92.7396
L1D TIMELY PREFETCHES:     790902 LATE PREFETCHES: 48743 DROPPED PREFETCHES: 0
L1D PREFETCHES SAME FILL-ORIGIN LEVEL: 852780 DIFFERENT FILL-ORIGIN LEVEL: 40
L1D AVERAGE MISS LATENCY: 6.55359e+06 cycles
L1D RQ	ACCESS:   13242243	FORWARD:          0	MERGED:    3419475	TO_CACHE:    9814309
L1D WQ	ACCESS:    5368851	FORWARD:       8465	MERGED:     576974	TO_CACHE:    4791877
L1D PQ	ACCESS:    8319530	FORWARD:          0	MERGED:      56173	TO_CACHE:    8263351

L1D UNIQUE REGIONS ACCESSED: 0
L1D REGIONS CONFLICTS: 0
L1D Cross Page Prefetch Requests: 0
L1D Same Page Prefetch Requests: 16611991
L1D ROI Sum of L1D PQ occupancy: 111405547
L1D PREFETCHES PUSHED FROM L2C: 0
L1I TOTAL     ACCESS:    8343844  HIT:    8343755  MISS:         89  HIT %:    99.9989  MISS %: 0.00106665   MPKI: 0.00178
L1I LOAD      ACCESS:    8343844  HIT:    8343755  MISS:         89  HIT %:    99.9989  MISS %: 0.00106665   MPKI: 0.00178
L1I PREFETCH  REQUESTED:          0  ISSUED:          0  USEFUL:          0  USELESS:          0
L1I USEFUL LOAD PREFETCHES:          0 PREFETCH ISSUED TO LOWER LEVEL:          0  ACCURACY: -nan
L1I TIMELY PREFETCHES:          0 LATE PREFETCHES: 0 DROPPED PREFETCHES: 0
L1I PREFETCHES SAME FILL-ORIGIN LEVEL: 0 DIFFERENT FILL-ORIGIN LEVEL: 0
L1I AVERAGE MISS LATENCY: 196.854 cycles
L1I RQ	ACCESS:   14018977	FORWARD:          0	MERGED:    5675121	TO_CACHE:    8343856

BTB TOTAL     ACCESS:    9291547  HIT:    9274276  MISS:      17271  HIT %:    99.8141  MISS %:   0.185879   MPKI: 0.34542
BTB BRANCH_DIRECT_JUMP	ACCESS:    1184499  HIT:    1184424  MISS:         75
BTB BRANCH_INDIRECT	ACCESS:          0  HIT:          0  MISS:          0
BTB BRANCH_CONDITIONAL	ACCESS:    6903437  HIT:    6903269  MISS:        168
BTB BRANCH_DIRECT_CALL	ACCESS:     601785  HIT:     601743  MISS:         42
BTB BRANCH_INDIRECT_CALL	ACCESS:         21  HIT:         20  MISS:          1
BTB BRANCH_RETURN	ACCESS:     601805  HIT:     584820  MISS:      16985
BTB BRANCH_OTHER ACCESS:           0  HIT:          0  MISS:          0

L2C TOTAL     ACCESS:    2682825  HIT:    2114444  MISS:     568381  HIT %:    78.8141  MISS %:    21.1859   MPKI: 11.3676
L2C LOAD      ACCESS:      91296  HIT:      35301  MISS:      55995  HIT %:    38.6665  MISS %:    61.3335   MPKI: 1.1199
L2C DATA LOAD MPKI: 1.11812
L2C INSTRUCTION LOAD MPKI: 0.00178
L2C RFO       ACCESS:       1245  HIT:        122  MISS:       1123  HIT %:     9.7992  MISS %:    90.2008   MPKI: 0.02246
L2C PREFETCH  ACCESS:    2557238  HIT:    2053832  MISS:     503406  HIT %:    80.3145  MISS %:    19.6855   MPKI: 10.0681
AGUS PREFETCH L1 MISS: 0
L2C DATA PREFETCH MPKI: 10.0681
L2C INSTRUCTION PREFETCH MPKI: 0
L2C WRITEBACK ACCESS:      12546  HIT:      12499  MISS:         47  HIT %:    99.6254  MISS %:   0.374621   MPKI: 0.00094
L2C LOAD TRANSLATION ACCESS:      20500  HIT:      12690  MISS:       7810  HIT %:    61.9024  MISS %:    38.0976   MPKI: 0.1562
L2C PREFETCH  REQUESTED:    4128638  ISSUED:    4127563  USEFUL:       5156  USELESS:     498383
L2C USEFUL LOAD PREFETCHES:       5156 PREFETCH ISSUED TO LOWER LEVEL:    2622486  ACCURACY: 0.196607
L2C TIMELY PREFETCHES:       5156 LATE PREFETCHES: 106 DROPPED PREFETCHES: 0
L2C PREFETCHES SAME FILL-ORIGIN LEVEL: 147224 DIFFERENT FILL-ORIGIN LEVEL: 2118974
L2C AVERAGE MISS LATENCY: 56.7902 cycles
L2C RQ	ACCESS:     113041	FORWARD:          0	MERGED:          0	TO_CACHE:     113041
L2C WQ	ACCESS:      12546	FORWARD:          0	MERGED:          0	TO_CACHE:      12546
L2C PQ	ACCESS:    4980090	FORWARD:          0	MERGED:     297371	TO_CACHE:    4682719

L2C Instructions Evicting Data 86
L2C Translations Evicting Data 7654
L2C Data Evicting Data 552721
L2C Instructions Evicting Instructions 0
L2C Translations Evicting Instructions 2
L2C Data Evicting Instructions 87
L2C Instructions Evicting Translations 3
L2C Translations Evicting Translations 154
L2C Data Evicting Translations 7627
L2C Dense regions hint from L2: 0
PSCL5 TOTAL     ACCESS:      18913  HIT:      18913  MISS:          0  HIT %:        100  MISS %:          0   MPKI: 0
PSCL5 LOAD TRANSLATION ACCESS:      18913  HIT:      18913  MISS:          0  HIT %:        100  MISS %:          0   MPKI: 0
PSCL5 PREFETCH  REQUESTED:          0  ISSUED:          0  USEFUL:          0  USELESS:          0
PSCL5 USEFUL LOAD PREFETCHES:          0 PREFETCH ISSUED TO LOWER LEVEL:          0  ACCURACY: -nan
PSCL5 TIMELY PREFETCHES:          0 LATE PREFETCHES: 0 DROPPED PREFETCHES: 0
PSCL5 PREFETCHES SAME FILL-ORIGIN LEVEL: 0 DIFFERENT FILL-ORIGIN LEVEL: 0

PSCL4 TOTAL     ACCESS:      18913  HIT:      18913  MISS:          0  HIT %:        100  MISS %:          0   MPKI: 0
PSCL4 LOAD TRANSLATION ACCESS:      18913  HIT:      18913  MISS:          0  HIT %:        100  MISS %:          0   MPKI: 0
PSCL4 PREFETCH  REQUESTED:          0  ISSUED:          0  USEFUL:          0  USELESS:          0
PSCL4 USEFUL LOAD PREFETCHES:          0 PREFETCH ISSUED TO LOWER LEVEL:          0  ACCURACY: -nan
PSCL4 TIMELY PREFETCHES:          0 LATE PREFETCHES: 0 DROPPED PREFETCHES: 0
PSCL4 PREFETCHES SAME FILL-ORIGIN LEVEL: 0 DIFFERENT FILL-ORIGIN LEVEL: 0

PSCL3 TOTAL     ACCESS:      18913  HIT:      18913  MISS:          0  HIT %:        100  MISS %:          0   MPKI: 0
PSCL3 LOAD TRANSLATION ACCESS:      18913  HIT:      18913  MISS:          0  HIT %:        100  MISS %:          0   MPKI: 0
PSCL3 PREFETCH  REQUESTED:          0  ISSUED:          0  USEFUL:          0  USELESS:          0
PSCL3 USEFUL LOAD PREFETCHES:          0 PREFETCH ISSUED TO LOWER LEVEL:          0  ACCURACY: -nan
PSCL3 TIMELY PREFETCHES:          0 LATE PREFETCHES: 0 DROPPED PREFETCHES: 0
PSCL3 PREFETCHES SAME FILL-ORIGIN LEVEL: 0 DIFFERENT FILL-ORIGIN LEVEL: 0

PSCL2 TOTAL     ACCESS:      18913  HIT:      17305  MISS:       1608  HIT %:    91.4979  MISS %:    8.50209   MPKI: 0.03216
PSCL2 LOAD TRANSLATION ACCESS:      18913  HIT:      17305  MISS:       1608  HIT %:    91.4979  MISS %:    8.50209   MPKI: 0.03216
PSCL2 PREFETCH  REQUESTED:          0  ISSUED:          0  USEFUL:          0  USELESS:          0
PSCL2 USEFUL LOAD PREFETCHES:          0 PREFETCH ISSUED TO LOWER LEVEL:          0  ACCURACY: -nan
PSCL2 TIMELY PREFETCHES:          0 LATE PREFETCHES: 0 DROPPED PREFETCHES: 0
PSCL2 PREFETCHES SAME FILL-ORIGIN LEVEL: 0 DIFFERENT FILL-ORIGIN LEVEL: 0

LLC TOTAL     ACCESS:    2608530  HIT:    1994758  MISS:     613772  HIT %:    76.4706  MISS %:    23.5294   MPKI: 12.2754
LLC LOAD      ACCESS:      55889  HIT:      22463  MISS:      33426  HIT %:    40.1922  MISS %:    59.8078   MPKI: 0.66852
LLC RFO       ACCESS:       1123  HIT:        165  MISS:        958  HIT %:    14.6928  MISS %:    85.3072   MPKI: 0.01916
LLC PREFETCH  ACCESS:    2535516  HIT:    1968234  MISS:     567282  HIT %:    77.6266  MISS %:    22.3734   MPKI: 11.3456
AGUS PREFETCH L1 MISS: 0
LLC WRITEBACK ACCESS:       8192  HIT:       3394  MISS:       4798  HIT %:    41.4307  MISS %:    58.5693   MPKI: 0.09596
LLC LOAD TRANSLATION ACCESS:       7810  HIT:        502  MISS:       7308  HIT %:    6.42766  MISS %:    93.5723   MPKI: 0.14616
LLC PREFETCH  REQUESTED:          0  ISSUED:          0  USEFUL:      18812  USELESS:     491288
LLC USEFUL LOAD PREFETCHES:      18812 PREFETCH ISSUED TO LOWER LEVEL:     567980  ACCURACY: 3.31209
LLC TIMELY PREFETCHES:      18812 LATE PREFETCHES: 698 DROPPED PREFETCHES: 0
LLC PREFETCHES SAME FILL-ORIGIN LEVEL: 477756 DIFFERENT FILL-ORIGIN LEVEL: 0
LLC AVERAGE MISS LATENCY: 86.782 cycles
LLC RQ	ACCESS:      64822	FORWARD:          0	MERGED:          0	TO_CACHE:      64822
LLC WQ	ACCESS:       8192	FORWARD:          0	MERGED:          0	TO_CACHE:       8192
LLC PQ	ACCESS:    2622486	FORWARD:          0	MERGED:      14074	TO_CACHE:    2608412

LLC Dense regions hint to LLC: 0

RAW hits: 24550
Loads Generated: 13266793
Loads sent to L1D: 13242243
Stores Generated: 5368850
Stores sent to L1D: 5368851
Major fault: 0 Minor fault: 8936
Allocated PAGES: 8936
CPU 0 L1D PC-based stride prefetcher final stats
Degree: 3
 All Calls: 1640755
 Critical Calls: 1640755
------------------
Depth Distribution
------------------
depth 0: 0
depth 1: 1608434
depth 2: 1264791
depth 3: 1131425
depth 4: 1003769
depth 5: 846483
depth 6: 696225
depth 7: 528168
depth 8: 350351
depth 9: 204126
depth 10: 55320
depth 11: 10761
depth 12: 503
depth 13: 0
depth 14: 0
depth 15: 0
depth 16: 0
depth 17: 0
depth 18: 0
depth 19: 0
depth 20: 0
depth 21: 0
depth 22: 0
depth 23: 0
depth 24: 0
depth 25: 0
depth 26: 0
depth 27: 0
depth 28: 0
depth 29: 0
Total: 7700356
-----------------------------
-----------------------------
	Captured at Filter
-----------------------------
depth 0: 0
depth 1: 162793
depth 2: 143716
depth 3: 117684
depth 4: 103424
depth 5: 89186
depth 6: 73468
depth 7: 56278
depth 8: 36865
depth 9: 21722
depth 10: 6106
depth 11: 1249
depth 12: 78
depth 13: 0
depth 14: 0
depth 15: 0
depth 16: 0
depth 17: 0
depth 18: 0
depth 19: 0
depth 20: 0
depth 21: 0
depth 22: 0
depth 23: 0
depth 24: 0
depth 25: 0
depth 26: 0
depth 27: 0
depth 28: 0
depth 29: 0
-----------------------------
-----------------------------
		Lost at Page
-----------------------------
depth 0: 0
depth 1: 32827
depth 2: 46857
depth 3: 63451
depth 4: 77582
depth 5: 86458
depth 6: 90149
depth 7: 83719
depth 8: 65672
depth 9: 44708
depth 10: 14121
depth 11: 3241
depth 12: 177
depth 13: 0
depth 14: 0
depth 15: 0
depth 16: 0
depth 17: 0
depth 18: 0
depth 19: 0
depth 20: 0
depth 21: 0
depth 22: 0
depth 23: 0
depth 24: 0
depth 25: 0
depth 26: 0
depth 27: 0
depth 28: 0
depth 29: 0
-----------------------------
-----------------------------
	Lost due to PQ Size
-----------------------------
3009
-----------------------------
ST read accesses: 852014
ST write accesses: 20129
PT read accesses: 28747858
PT write accesses: 1256274
FILTER read accesses: 6022211
FILTER write accesses: 1098154
GHR read accesses: 2046617
GHR write accesses: 345788
GHR counter read accesses: 24449090
GHR counter write accesses: 1402882
ST tag read accesses: 346266486
ST tag write accesses: 7643814

DRAM Statistics
 CHANNEL 0
 RQ ROW_BUFFER_HIT:     511769  ROW_BUFFER_MISS:      97205
 DBUS_CONGESTED:        447
 WQ ROW_BUFFER_HIT:       1863  ROW_BUFFER_MISS:       5604  FULL:          0

 AVG_CONGESTED_CYCLE: 4
 All warmup complete: 2
Channel 0 Bank busy for read cycles: 0
Channel 0 Bank busy for write cycles: 0
Channel 0
Rank 0
0banks busy for read cycles: 107959279
0banks busy for write cycles: 5288
1banks busy for read cycles: 10359571
1banks busy for write cycles: 1039106
2banks busy for read cycles: 7309509
2banks busy for write cycles: 194449
3banks busy for read cycles: 2157059
3banks busy for write cycles: 74288
4banks busy for read cycles: 849714
4banks busy for write cycles: 35031
5banks busy for read cycles: 378843
5banks busy for write cycles: 23941
6banks busy for read cycles: 180786
6banks busy for write cycles: 14238
7banks busy for read cycles: 108235
7banks busy for write cycles: 10080
8banks busy for read cycles: 198349
8banks busy for write cycles: 5403

CPU 0 Branch Prediction Accuracy: 95.0334% MPKI: 12.0195 Average ROB Occupancy at Mispredict: 57.8266
Branch types
NOT_BRANCH: 37899464 75.7989%
BRANCH_DIRECT_JUMP: 1184499 2.369%
BRANCH_INDIRECT: 0 0%
BRANCH_CONDITIONAL: 9712134 19.4243%
BRANCH_DIRECT_CALL: 601785 1.20357%
BRANCH_INDIRECT_CALL: 21 4.2e-05%
BRANCH_RETURN: 601805 1.20361%
BRANCH_OTHER: 0 0%

DRAM PAGES: 1048576
Allocated PAGES: 8936
