Initialize SIGNATURE TABLE
ST_SET: 1
ST_WAY: 256
ST_TAG_BIT: 16
ST_TAG_MASK: ffff

Initialize PATTERN TABLE
PT_SET: 512
PT_WAY: 4
SIG_DELTA_BIT: 7
C_SIG_BIT: 4
C_DELTA_BIT: 4

Initialize PREFETCH FILTER
FILTER_SET: 1024

*** ChampSim Multicore Out-of-Order Simulator ***

Warmup Instructions: 50000000
Simulation Instructions: 50000000
Number of CPUs: 1
LLC sets: 2048
LLC ways: 16
Off-chip DRAM Size: 4096 MB Channels: 1 Width: 64-bit Data Rate: 6400 MT/s
CPU 0 runs ./tracer/traces/621.wrf_s-6673B.champsimtrace.xz
.xz
CPU 0 Bimodal branch predictor
BTB has LRU replacement policy
ITLB has LRU replacement policy
DTLB has LRU replacement policy
STLB has LRU replacement policy
L1I has LRU replacement policy
L1D has LRU replacement policy
ST_WAYS: 256
PT_SETS: 512
Initialize SRRIP state for L2C
Heartbeat CPU 0 instructions: 10000002 cycles: 3558421 heartbeat IPC: 2.81024 cumulative IPC: 2.81024 (Simulation time: 0 hr 0 min 43 sec) 
Heartbeat CPU 0 instructions: 20000003 cycles: 6463532 heartbeat IPC: 3.44221 cumulative IPC: 3.09428 (Simulation time: 0 hr 1 min 17 sec) 
Heartbeat CPU 0 instructions: 30000000 cycles: 9283320 heartbeat IPC: 3.54636 cumulative IPC: 3.2316 (Simulation time: 0 hr 1 min 53 sec) 
Heartbeat CPU 0 instructions: 40000002 cycles: 12168583 heartbeat IPC: 3.46589 cumulative IPC: 3.28715 (Simulation time: 0 hr 2 min 32 sec) 
Heartbeat CPU 0 instructions: 50000000 cycles: 15072070 heartbeat IPC: 3.44413 cumulative IPC: 3.31739 (Simulation time: 0 hr 3 min 11 sec) 

Warmup complete CPU 0 instructions: 50000004 cycles: 15072071 (Simulation time: 0 hr 3 min 11 sec) 

Heartbeat CPU 0 instructions: 60000001 cycles: 28274527 heartbeat IPC: 0.757435 cumulative IPC: 0.757435 (Simulation time: 0 hr 4 min 9 sec) 
Heartbeat CPU 0 instructions: 70000000 cycles: 43675745 heartbeat IPC: 0.649299 cumulative IPC: 0.699211 (Simulation time: 0 hr 5 min 22 sec) 
Heartbeat CPU 0 instructions: 80000000 cycles: 55790285 heartbeat IPC: 0.825454 cumulative IPC: 0.736771 (Simulation time: 0 hr 6 min 46 sec) 
Heartbeat CPU 0 instructions: 90000003 cycles: 68941386 heartbeat IPC: 0.760393 cumulative IPC: 0.742538 (Simulation time: 0 hr 8 min 15 sec) 
Heartbeat CPU 0 instructions: 100000000 cycles: 84959342 heartbeat IPC: 0.624299 cumulative IPC: 0.715438 (Simulation time: 0 hr 9 min 41 sec) 
Finished CPU 0 instructions: 50000002 cycles: 69887274 cumulative IPC: 0.715438 (Simulation time: 0 hr 9 min 41 sec) 

ChampSim completed all CPUs

Region of Interest Statistics

CPU 0 cumulative IPC: 0.715438 instructions: 50000002 cycles: 69887274
ITLB TOTAL     ACCESS:    7544008  HIT:    7543927  MISS:         81  HIT %:    99.9989  MISS %:  0.0010737   MPKI: 0.00162
ITLB LOAD TRANSLATION ACCESS:    7544008  HIT:    7543927  MISS:         81  HIT %:    99.9989  MISS %:  0.0010737   MPKI: 0.00162
ITLB PREFETCH  REQUESTED:          0  ISSUED:          0  USEFUL:          0  USELESS:          0
ITLB USEFUL LOAD PREFETCHES:          0 PREFETCH ISSUED TO LOWER LEVEL:          0  ACCURACY: -nan
ITLB TIMELY PREFETCHES:          0 LATE PREFETCHES: 0 DROPPED PREFETCHES: 0
ITLB PREFETCHES SAME FILL-ORIGIN LEVEL: 0 DIFFERENT FILL-ORIGIN LEVEL: 0
ITLB AVERAGE MISS LATENCY: 239.716 cycles
ITLB RQ	ACCESS:    9399229	FORWARD:          0	MERGED:    1855190	TO_CACHE:    7544039

DTLB TOTAL     ACCESS:   14748309  HIT:   14599710  MISS:     148599  HIT %:    98.9924  MISS %:    1.00757   MPKI: 2.97198
DTLB LOAD TRANSLATION ACCESS:   14748309  HIT:   14599710  MISS:     148599  HIT %:    98.9924  MISS %:    1.00757   MPKI: 2.97198
DTLB PREFETCH  REQUESTED:          0  ISSUED:          0  USEFUL:          0  USELESS:          0
DTLB USEFUL LOAD PREFETCHES:          0 PREFETCH ISSUED TO LOWER LEVEL:          0  ACCURACY: -nan
DTLB TIMELY PREFETCHES:          0 LATE PREFETCHES: 0 DROPPED PREFETCHES: 0
DTLB PREFETCHES SAME FILL-ORIGIN LEVEL: 0 DIFFERENT FILL-ORIGIN LEVEL: 0
DTLB AVERAGE MISS LATENCY: 21.3903 cycles
DTLB RQ	ACCESS:   16717450	FORWARD:          0	MERGED:    1947441	TO_CACHE:   14770009

STLB TOTAL     ACCESS:     924665  HIT:     909393  MISS:      15272  HIT %:    98.3484  MISS %:    1.65163   MPKI: 0.30544
STLB LOAD TRANSLATION ACCESS:     148680  HIT:     133408  MISS:      15272  HIT %:    89.7283  MISS %:    10.2717   MPKI: 0.30544
STLB TRANSLATION FROM L1D PREFETCHER ACCESS:     775985  HIT:     775985  MISS:          0  HIT %:        100  MISS %:          0   MPKI: 0
STLB PREFETCH  REQUESTED:          0  ISSUED:          0  USEFUL:          0  USELESS:          0
STLB USEFUL LOAD PREFETCHES:          0 PREFETCH ISSUED TO LOWER LEVEL:          0  ACCURACY: -nan
STLB TIMELY PREFETCHES:          0 LATE PREFETCHES: 0 DROPPED PREFETCHES: 0
STLB PREFETCHES SAME FILL-ORIGIN LEVEL: 0 DIFFERENT FILL-ORIGIN LEVEL: 0
STLB AVERAGE MISS LATENCY: 120.91 cycles
STLB RQ	ACCESS:    1357998	FORWARD:          0	MERGED:     433333	TO_CACHE:     924665

STLB Hit, L1D data hit: 0
STLB Hit, L2C data hit: 0
STLB Hit, LLC data hit: 0
STLB Hit, LLC data miss: 0
STLB STLB hints to L2: 0
L1D TOTAL     ACCESS:   17253216  HIT:   15410138  MISS:    1843078  HIT %:    89.3175  MISS %:    10.6825   MPKI: 36.8616
L1D LOAD      ACCESS:   13089791  HIT:   12511305  MISS:     578486  HIT %:    95.5806  MISS %:    4.41937   MPKI: 11.5697
L1D RFO       ACCESS:    3103729  HIT:    2894113  MISS:     209616  HIT %:    93.2463  MISS %:    6.75368   MPKI: 4.19232
L1D PREFETCH  ACCESS:    1059696  HIT:       4720  MISS:    1054976  HIT %:   0.445411  MISS %:    99.5546   MPKI: 21.0995
AGUS PREFETCH L1 MISS: 0
L1D PREFETCH  REQUESTED:    2420716  ISSUED:    2420716  USEFUL:     939207  USELESS:     115781
L1D USEFUL LOAD PREFETCHES:     939207 PREFETCH ISSUED TO LOWER LEVEL:    1282080  ACCURACY: 73.2565
L1D TIMELY PREFETCHES:     939207 LATE PREFETCHES: 48544 DROPPED PREFETCHES: 0
L1D PREFETCHES SAME FILL-ORIGIN LEVEL: 1188583 DIFFERENT FILL-ORIGIN LEVEL: 93497
L1D AVERAGE MISS LATENCY: 1.52885e+06 cycles
L1D RQ	ACCESS:   16708734	FORWARD:          0	MERGED:    3468009	TO_CACHE:   13232355
L1D WQ	ACCESS:    3489005	FORWARD:       8373	MERGED:       3910	TO_CACHE:    3485095
L1D PQ	ACCESS:    1211398	FORWARD:          0	MERGED:       2077	TO_CACHE:    1209318

L1D UNIQUE REGIONS ACCESSED: 0
L1D REGIONS CONFLICTS: 0
L1D Cross Page Prefetch Requests: 0
L1D Same Page Prefetch Requests: 2113781
L1D ROI Sum of L1D PQ occupancy: 17301451
L1D PREFETCHES PUSHED FROM L2C: 0
L1I TOTAL     ACCESS:    9397867  HIT:    9395089  MISS:       2778  HIT %:    99.9704  MISS %:  0.0295599   MPKI: 0.05556
L1I LOAD      ACCESS:    9397867  HIT:    9395089  MISS:       2778  HIT %:    99.9704  MISS %:  0.0295599   MPKI: 0.05556
L1I PREFETCH  REQUESTED:          0  ISSUED:          0  USEFUL:          0  USELESS:          0
L1I USEFUL LOAD PREFETCHES:          0 PREFETCH ISSUED TO LOWER LEVEL:          0  ACCURACY: -nan
L1I TIMELY PREFETCHES:          0 LATE PREFETCHES: 0 DROPPED PREFETCHES: 0
L1I PREFETCHES SAME FILL-ORIGIN LEVEL: 0 DIFFERENT FILL-ORIGIN LEVEL: 0
L1I AVERAGE MISS LATENCY: 235.696 cycles
L1I RQ	ACCESS:   12963572	FORWARD:          0	MERGED:    3564343	TO_CACHE:    9399229

BTB TOTAL     ACCESS:    2203350  HIT:    2197116  MISS:       6234  HIT %:    99.7171  MISS %:   0.282933   MPKI: 0.12468
BTB BRANCH_DIRECT_JUMP	ACCESS:       3916  HIT:       3875  MISS:         41
BTB BRANCH_INDIRECT	ACCESS:          0  HIT:          0  MISS:          0
BTB BRANCH_CONDITIONAL	ACCESS:    2181742  HIT:    2181270  MISS:        472
BTB BRANCH_DIRECT_CALL	ACCESS:       8847  HIT:       8610  MISS:        237
BTB BRANCH_INDIRECT_CALL	ACCESS:          0  HIT:          0  MISS:          0
BTB BRANCH_RETURN	ACCESS:       8845  HIT:       3361  MISS:       5484
BTB BRANCH_OTHER ACCESS:           0  HIT:          0  MISS:          0

L2C TOTAL     ACCESS:    4315091  HIT:    2953780  MISS:    1361311  HIT %:    68.4523  MISS %:    31.5477   MPKI: 27.2262
L2C LOAD      ACCESS:     532699  HIT:     411547  MISS:     121152  HIT %:    77.2569  MISS %:    22.7431   MPKI: 2.42304
L2C DATA LOAD MPKI: 2.36748
L2C INSTRUCTION LOAD MPKI: 0.05556
L2C RFO       ACCESS:     209436  HIT:     101096  MISS:     108340  HIT %:    48.2706  MISS %:    51.7294   MPKI: 2.1668
L2C PREFETCH  ACCESS:    2948838  HIT:    1827683  MISS:    1121155  HIT %:    61.9798  MISS %:    38.0202   MPKI: 22.4231
AGUS PREFETCH L1 MISS: 0
L2C DATA PREFETCH MPKI: 22.4231
L2C INSTRUCTION PREFETCH MPKI: 0
L2C WRITEBACK ACCESS:     608731  HIT:     600770  MISS:       7961  HIT %:    98.6922  MISS %:     1.3078   MPKI: 0.15922
L2C LOAD TRANSLATION ACCESS:      15387  HIT:      12684  MISS:       2703  HIT %:    82.4332  MISS %:    17.5668   MPKI: 0.05406
L2C PREFETCH  REQUESTED:    5164901  ISSUED:    4903596  USEFUL:     249234  USELESS:     873630
L2C USEFUL LOAD PREFETCHES:     249234 PREFETCH ISSUED TO LOWER LEVEL:    3300885  ACCURACY: 7.55052
L2C TIMELY PREFETCHES:     249234 LATE PREFETCHES: 1822 DROPPED PREFETCHES: 0
L2C PREFETCHES SAME FILL-ORIGIN LEVEL: 280798 DIFFERENT FILL-ORIGIN LEVEL: 2177757
L2C AVERAGE MISS LATENCY: 198.212 cycles
L2C RQ	ACCESS:     757566	FORWARD:          0	MERGED:          0	TO_CACHE:     757537
L2C WQ	ACCESS:     608731	FORWARD:         58	MERGED:          0	TO_CACHE:     608731
L2C PQ	ACCESS:    6099776	FORWARD:          0	MERGED:     908389	TO_CACHE:    5191358

L2C Instructions Evicting Data 2753
L2C Translations Evicting Data 2692
L2C Data Evicting Data 1342458
L2C Instructions Evicting Instructions 9
L2C Translations Evicting Instructions 9
L2C Data Evicting Instructions 2747
L2C Instructions Evicting Translations 16
L2C Translations Evicting Translations 2
L2C Data Evicting Translations 2664
L2C Dense regions hint from L2: 0
PSCL5 TOTAL     ACCESS:      15272  HIT:      15272  MISS:          0  HIT %:        100  MISS %:          0   MPKI: 0
PSCL5 LOAD TRANSLATION ACCESS:      15272  HIT:      15272  MISS:          0  HIT %:        100  MISS %:          0   MPKI: 0
PSCL5 PREFETCH  REQUESTED:          0  ISSUED:          0  USEFUL:          0  USELESS:          0
PSCL5 USEFUL LOAD PREFETCHES:          0 PREFETCH ISSUED TO LOWER LEVEL:          0  ACCURACY: -nan
PSCL5 TIMELY PREFETCHES:          0 LATE PREFETCHES: 0 DROPPED PREFETCHES: 0
PSCL5 PREFETCHES SAME FILL-ORIGIN LEVEL: 0 DIFFERENT FILL-ORIGIN LEVEL: 0

PSCL4 TOTAL     ACCESS:      15272  HIT:      15272  MISS:          0  HIT %:        100  MISS %:          0   MPKI: 0
PSCL4 LOAD TRANSLATION ACCESS:      15272  HIT:      15272  MISS:          0  HIT %:        100  MISS %:          0   MPKI: 0
PSCL4 PREFETCH  REQUESTED:          0  ISSUED:          0  USEFUL:          0  USELESS:          0
PSCL4 USEFUL LOAD PREFETCHES:          0 PREFETCH ISSUED TO LOWER LEVEL:          0  ACCURACY: -nan
PSCL4 TIMELY PREFETCHES:          0 LATE PREFETCHES: 0 DROPPED PREFETCHES: 0
PSCL4 PREFETCHES SAME FILL-ORIGIN LEVEL: 0 DIFFERENT FILL-ORIGIN LEVEL: 0

PSCL3 TOTAL     ACCESS:      15272  HIT:      15272  MISS:          0  HIT %:        100  MISS %:          0   MPKI: 0
PSCL3 LOAD TRANSLATION ACCESS:      15272  HIT:      15272  MISS:          0  HIT %:        100  MISS %:          0   MPKI: 0
PSCL3 PREFETCH  REQUESTED:          0  ISSUED:          0  USEFUL:          0  USELESS:          0
PSCL3 USEFUL LOAD PREFETCHES:          0 PREFETCH ISSUED TO LOWER LEVEL:          0  ACCURACY: -nan
PSCL3 TIMELY PREFETCHES:          0 LATE PREFETCHES: 0 DROPPED PREFETCHES: 0
PSCL3 PREFETCHES SAME FILL-ORIGIN LEVEL: 0 DIFFERENT FILL-ORIGIN LEVEL: 0

PSCL2 TOTAL     ACCESS:      15272  HIT:      15157  MISS:        115  HIT %:     99.247  MISS %:   0.753012   MPKI: 0.0023
PSCL2 LOAD TRANSLATION ACCESS:      15272  HIT:      15157  MISS:        115  HIT %:     99.247  MISS %:   0.753012   MPKI: 0.0023
PSCL2 PREFETCH  REQUESTED:          0  ISSUED:          0  USEFUL:          0  USELESS:          0
PSCL2 USEFUL LOAD PREFETCHES:          0 PREFETCH ISSUED TO LOWER LEVEL:          0  ACCURACY: -nan
PSCL2 TIMELY PREFETCHES:          0 LATE PREFETCHES: 0 DROPPED PREFETCHES: 0
PSCL2 PREFETCHES SAME FILL-ORIGIN LEVEL: 0 DIFFERENT FILL-ORIGIN LEVEL: 0

LLC TOTAL     ACCESS:    3493794  HIT:    1922742  MISS:    1571052  HIT %:    55.0331  MISS %:    44.9669   MPKI: 31.421
LLC LOAD      ACCESS:     119343  HIT:      48462  MISS:      70881  HIT %:    40.6073  MISS %:    59.3927   MPKI: 1.41762
LLC RFO       ACCESS:     108327  HIT:       1371  MISS:     106956  HIT %:    1.26561  MISS %:    98.7344   MPKI: 2.13912
LLC PREFETCH  ACCESS:    2829164  HIT:    1676867  MISS:    1152297  HIT %:    59.2708  MISS %:    40.7292   MPKI: 23.0459
AGUS PREFETCH L1 MISS: 0
LLC WRITEBACK ACCESS:     434257  HIT:     195851  MISS:     238406  HIT %:    45.1003  MISS %:    54.8997   MPKI: 4.76812
LLC LOAD TRANSLATION ACCESS:       2703  HIT:        191  MISS:       2512  HIT %:    7.06622  MISS %:    92.9338   MPKI: 0.05024
LLC PREFETCH  REQUESTED:          0  ISSUED:          0  USEFUL:      44220  USELESS:     869472
LLC USEFUL LOAD PREFETCHES:      44220 PREFETCH ISSUED TO LOWER LEVEL:    1160001  ACCURACY: 3.81207
LLC TIMELY PREFETCHES:      44220 LATE PREFETCHES: 7704 DROPPED PREFETCHES: 0
LLC PREFETCHES SAME FILL-ORIGIN LEVEL: 795411 DIFFERENT FILL-ORIGIN LEVEL: 0
LLC AVERAGE MISS LATENCY: 260.539 cycles
LLC RQ	ACCESS:     230386	FORWARD:          0	MERGED:          0	TO_CACHE:     230386
LLC WQ	ACCESS:     434257	FORWARD:          0	MERGED:          0	TO_CACHE:     434257
LLC PQ	ACCESS:    3297669	FORWARD:          0	MERGED:      26584	TO_CACHE:    3271085

LLC Dense regions hint to LLC: 0

RAW hits: 56987
Loads Generated: 16765721
Loads sent to L1D: 16708734
Stores Generated: 3489003
Stores sent to L1D: 3489006
Major fault: 0 Minor fault: 7750
Allocated PAGES: 7750
=== CPU 0 L1D Prefetcher Statistics ===
[MLOP] History of tracked zone:
IIIIIIIIIIIIIIIIIIIIIIIIIIIIIIIIIIIIIIIIIIIIIIIIIIIIIIIIIIIIIIII
A11111III1IIIIIIIIIIIIIIIIIIIIIIIIIIIIIIIIIIIIIIIIIIIIIIIIIIIIII
AA11111II11IIIIIIIIIIIIIIIIIIIIIIIIIIIIIIIIIIIIIIIIIIIIIIIIIIIII
AAA11111I111IIIIIIIIIIIIIIIIIIIIIIIIIIIIIIIIIIIIIIIIIIIIIIIIIIII
AAAA111111111IIIIIIIIIIIIIIIIIIIIIIIIIIIIIIIIIIIIIIIIIIIIIIIIIII
AAAAA111111111IIIIIIIIIIIIIIIIIIIIIIIIIIIIIIIIIIIIIIIIIIIIIIIIII
AAAAAA111111111IIIIIIIIIIIIIIIIIIIIIIIIIIIIIIIIIIIIIIIIIIIIIIIII
AAAAAAA111111111IIIIIIIIIIIIIIIIIIIIIIIIIIIIIIIIIIIIIIIIIIIIIIII
AAAAAAAA111111111IIIIIIIIIIIIIIIIIIIIIIIIIIIIIIIIIIIIIIIIIIIIIII
AAAAAAAAA111111111IIIIIIIIIIIIIIIIIIIIIIIIIIIIIIIIIIIIIIIIIIIIII
AAAAAAAAAA111111111IIIIIIIIIIIIIIIIIIIIIIIIIIIIIIIIIIIIIIIIIIIII
AAAAAAAAAAA111111111IIIIIIIIIIIIIIIIIIIIIIIIIIIIIIIIIIIIIIIIIIII
AAAAAAAAAAAA111111111IIIIIIIIIIIIIIIIIIIIIIIIIIIIIIIIIIIIIIIIIII
AAAAAAAAAAAAA111111111IIIIIIIIIIIIIIIIIIIIIIIIIIIIIIIIIIIIIIIIII
AAAAAAAAAAAAAA111111111IIIIIIIIIIIIIIIIIIIIIIIIIIIIIIIIIIIIIIIII
AAAAAAAAAAAAAAA111111111IIIIIIIIIIIIIIIIIIIIIIIIIIIIIIIIIIIIIIII
AAAAAAAAAAAAAAAA111111111IIIIIIIIIIIIIIIIIIIIIIIIIIIIIIIIIIIIIII
AAAAAAAAAAAAAAAAA111111111IIIIIIIIIIIIIIIIIIIIIIIIIIIIIIIIIIIIII
AAAAAAAAAAAAAAAAAA111111111IIIIIIIIIIIIIIIIIIIIIIIIIIIIIIIIIIIII
AAAAAAAAAAAAAAAAAAA111111111IIIIIIIIIIIIIIIIIIIIIIIIIIIIIIIIIIII
AAAAAAAAAAAAAAAAAAAA111111111IIIIIIIIIIIIIIIIIIIIIIIIIIIIIIIIIII
AAAAAAAAAAAAAAAAAAAAA111111111IIIIIIIIIIIIIIIIIIIIIIIIIIIIIIIIII
AAAAAAAAAAAAAAAAAAAAAA111111111IIIIIIIIIIIIIIIIIIIIIIIIIIIIIIIII
AAAAAAAAAAAAAAAAAAAAAAA111111111IIIIIIIIIIIIIIIIIIIIIIIIIIIIIIII
AAAAAAAAAAAAAAAAAAAAAAAA111111111IIIIIIIIIIIIIIIIIIIIIIIIIIIIIII
AAAAAAAAAAAAAAAAAAAAAAAAA111111111IIIIIIIIIIIIIIIIIIIIIIIIIIIIII
AAAAAAAAAAAAAAAAAAAAAAAAAA111111111IIIIIIIIIIIIIIIIIIIIIIIIIIIII
AAAAAAAAAAAAAAAAAAAAAAAAAAA111111111IIIIIIIIIIIIIIIIIIIIIIIIIIII
AAAAAAAAAAAAAAAAAAAAAAAAAAAA111111111IIIIIIIIIIIIIIIIIIIIIIIIIII
AAAAAAAAAAAAAAAAAAAAAAAAAAAAA111111111IIIIIIIIIIIIIIIIIIIIIIIIII
AAAAAAAAAAAAAAAAAAAAAAAAAAAAAA111111111IIIIIIIIIIIIIIIIIIIIIIIII
AAAAAAAAAAAAAAAAAAAAAAAAAAAAAAA111111111IIIIIIIIIIIIIIIIIIIIIIII
AAAAAAAAAAAAAAAAAAAAAAAAAAAAAAAA111111111IIIIIIIIIIIIIIIIIIIIIII
AAAAAAAAAAAAAAAAAAAAAAAAAAAAAAAAA111111111IIIIIIIIIIIIIIIIIIIIII
AAAAAAAAAAAAAAAAAAAAAAAAAAAAAAAAAA111111111IIIIIIIIIIIIIIIIIIIII
AAAAAAAAAAAAAAAAAAAAAAAAAAAAAAAAAAA111111111IIIIIIIIIIIIIIIIIIII
AAAAAAAAAAAAAAAAAAAAAAAAAAAAAAAAAAAA111111111IIIIIIIIIIIIIIIIIII
AAAAAAAAAAAAAAAAAAAAAAAAAAAAAAAAAAAAA111111111IIIIIIIIIIIIIIIIII
AAAAAAAAAAAAAAAAAAAAAAAAAAAAAAAAAAAAAA111111111IIIIIIIIIIIIIIIII
AAAAAAAAAAAAAAAAAAAAAAAAAAAAAAAAAAAAAAA111111111IIIIIIIIIIIIIIII
AAAAAAAAAAAAAAAAAAAAAAAAAAAAAAAAAAAAAAAA111111111IIIIIIIIIIIIIII
AAAAAAAAAAAAAAAAAAAAAAAAAAAAAAAAAAAAAAAAA111111111IIIIIIIIIIIIII
AAAAAAAAAAAAAAAAAAAAAAAAAAAAAAAAAAAAAAAAAA111111111IIIIIIIIIIIII
AAAAAAAAAAAAAAAAAAAAAAAAAAAAAAAAAAAAAAAAAAA111111111IIIIIIIIIIII
AAAAAAAAAAAAAAAAAAAAAAAAAAAAAAAAAAAAAAAAAAAA111111111IIIIIIIIIII
AAAAAAAAAAAAAAAAAAAAAAAAAAAAAAAAAAAAAAAAAAAAA111111111IIIIIIIIII
AAAAAAAAAAAAAAAAAAAAAAAAAAAAAAAAAAAAAAAAAAAAAA111111111IIIIIIIII
AAAAAAAAAAAAAAAAAAAAAAAAAAAAAAAAAAAAAAAAAAAAAAA111111111IIIIIIII
AAAAAAAAAAAAAAAAAAAAAAAAAAAAAAAAAAAAAAAAAAAAAAAA111111111IIIIIII
AAAAAAAAAAAAAAAAAAAAAAAAAAAAAAAAAAAAAAAAAAAAAAAAA111111111IIIIII
AAAAAAAAAAAAAAAAAAAAAAAAAAAAAAAAAAAAAAAAAAAAAAAAAA111111111IIIII
AAAAAAAAAAAAAAAAAAAAAAAAAAAAAAAAAAAAAAAAAAAAAAAAAAA111111111IIII
AAAAAAAAAAAAAAAAAAAAAAAAAAAAAAAAAAAAAAAAAAAAAAAAAAAA111111111III
AAAAAAAAAAAAAAAAAAAAAAAAAAAAAAAAAAAAAAAAAAAAAAAAAAAAA111111111II
AAAAAAAAAAAAAAAAAAAAAAAAAAAAAAAAAAAAAAAAAAAAAAAAAAAAAA111111111I
AAAAAAAAAAAAAAAAAAAAAAAAAAAAAAAAAAAAAAAAAAAAAAAAAAAAAAA111111111
AAAAAAAAAAAAAAAAAAAAAAAAAAAAAAAAAAAAAAAAAAAAAAAAAAAAAAAA11111111
AAAAAAAAAAAAAAAAAAAAAAAAAAAAAAAAAAAAAAAAAAAAAAAAAAAAAAAAA1111111
AAAAAAAAAAAAAAAAAAAAAAAAAAAAAAAAAAAAAAAAAAAAAAAAAAAAAAAAAA111111
AAAAAAAAAAAAAAAAAAAAAAAAAAAAAAAAAAAAAAAAAAAAAAAAAAAAAAAAAAA11111
AAAAAAAAAAAAAAAAAAAAAAAAAAAAAAAAAAAAAAAAAAAAAAAAAAAAAAAAAAAA1111
AAAAAAAAAAAAAAAAAAAAAAAAAAAAAAAAAAAAAAAAAAAAAAAAAAAAAAAAAAAAA111
AAAAAAAAAAAAAAAAAAAAAAAAAAAAAAAAAAAAAAAAAAAAAAAAAAAAAAAAAAAAAA11
AAAAAAAAAAAAAAAAAAAAAAAAAAAAAAAAAAAAAAAAAAAAAAAAAAAAAAAAAAAAAAA1
AAAAAAAAAAAAAAAAAAAAAAAAAAAAAAAAAAAAAAAAAAAAAAAAAAAAAAAAAAAAAAAA
IIIIAIII11IIII1IIIIIIIII11IIIIIIIIIIIIIIIIIIIIIIIIIIIIIIIIIIIIII
IIIIAIII11AIII11IIII1III11IIII11IIIIIIIIIIIIIIIIIIIIIIIIIIIIIIII
IIIIAIII11AIII1AIII11III11IIII11III11IIIIIIIIIIIIIIIIIIIIIIIIIII
IIIIAIII11AIII1AIII1AIII11IIII11III11III11IIIIIIIIIIIIIIIIIIIIII
IIIIAIII11AIII1AIII1AIII1AIII111III11III11III11IIIIIIIIIIIIIIIII
IIIIAIII11AIII1AIII1AIII1AIII11AIII11III11III11IIII11IIIIIIIIIII
IIIIAIII11AIII1AIII1AIII1AIII11AIII1AIII11III11IIII11III11IIIIII
IIIIAIII11AIII1AIII1AIII1AIII11AIII1AIII1AIII11IIII11III11III11I
IIIIAIII11AIII1AIII1AIII1AIII11AIII1AIII1AIII1AIII111III11III11I
IIIIAIII11AIII1AIII1AIII1AIII11AIII1AIII1AIII1AIII11AIII11III11I
IIIIAIII11AIII1AIII1AIII1AIII11AIII1AIII1AIII1AIII11AIII1AIII11I
IIIIAIII11AIII1AIII1AIII1AIII11AIII1AIII1AIII1AIII11AIII1AIII1AI
III1AIII11AIII1AIII1AIII1AIII11AIII1AIII1AIII1AIII11AIII1AIII1AI
III1AIII1AAIII1AIII1AIII1AIII11AIII1AIII1AIII1AIII11AIII1AIII1AI
III1AIII1AAII1AAIII1AIII1AIII11AIII1AIII1AIII1AIII11AIII1AIII1AI
III1AIII1AAII1AAII1AAIII1AIII11AIII1AIII1AIII1AIII11AIII1AIII1AI
III1AIII1AAII1AAII1AAIII1AIII1AAIII1AIII1AIII1AIII11AIII1AIII1AI
III1AIII1AAII1AAII1AAIII1AIII1AAII1AAIII1AIII1AIII11AIII1AIII1AI
III1AIII1AAII1AAII1AAIII1AIII1AAII1AAII1AAIII1AIII11AIII1AIII1AI
III1AIII1AAII1AAII1AAIII1AIII1AAII1AAII1AAIII1AIII1AAIII1AIII1AI
III1AIII1AAII1AAII1AAIII1AIII1AAII1AAII1AAIII1AIII1AAII1AAIII1AI
III1AIII1AAII1AAII1AAIII1AIII1AAII1AAII1AAIII1AIII1AAII1AAII1AAI
A1IIIIIIIIIIIIIIIIIIIIIIIIIIIIIIIIIIIIIIIIIIIIIIIIIIIIIIIIIIIIII
A1IIIIII111IIIII1IIIIIIIIIIIIIIIIIIIIIIIIIIIIIIIIIIIIIIIIIIIIIII
AA1IIIII1111IIII11IIIIIIIIIIIIIIIIIIIIIIIIIIIIIIIIIIIIIIIIIIIIII
AAA1IIII11111III111IIIIIIIIIIIIIIIIIIIIIIIIIIIIIIIIIIIIIIIIIIIII
AAAA1III111111II1111IIIIIIIIIIIIIIIIIIIIIIIIIIIIIIIIIIIIIIIIIIII
AAAAA1II1111111I11111IIIIIIIIIIIIIIIIIIIIIIIIIIIIIIIIIIIIIIIIIII
AAAAAA1I1111111I11111IIIIIIIIIIIIIIIIIIIIIIIIIIIIIIIIIIIIIIIIIII
AAAAAA1I11111111111111IIIIIIIIIIIIIIIIIIIIIIIIIIIIIIIIIIIIIIIIII
AAAAAAA1111111111111111IIIIIIIIIIIIIIIIIIIIIIIIIIIIIIIIIIIIIIIII
AAAAAAAA1111111111111111IIIIIIIIIIIIIIIIIIIIIIIIIIIIIIIIIIIIIIII
AAAAAAAAA1111111111111111IIIIIIIIIIIIIIIIIIIIIIIIIIIIIIIIIIIIIII
AAAAAAAAAA1111111111111111IIIIIIIIIIIIIIIIIIIIIIIIIIIIIIIIIIIIII
AAAAAAAAAAA1111111111111111IIIIIIIIIIIIIIIIIIIIIIIIIIIIIIIIIIIII
AAAAAAAAAAAA1111111111111111IIIIIIIIIIIIIIIIIIIIIIIIIIIIIIIIIIII
AAAAAAAAAAAAA1111111111111111IIIIIIIIIIIIIIIIIIIIIIIIIIIIIIIIIII
AAAAAAAAAAAAAA1111111111111111IIIIIIIIIIIIIIIIIIIIIIIIIIIIIIIIII
AAAAAAAAAAAAAAA1111111111111111IIIIIIIIIIIIIIIIIIIIIIIIIIIIIIIII
AAAAAAAAAAAAAAAA1111111111111111IIIIIIIIIIIIIIIIIIIIIIIIIIIIIIII
AAAAAAAAAAAAAAAAA1111111111111111IIIIIIIIIIIIIIIIIIIIIIIIIIIIIII
AAAAAAAAAAAAAAAAAA1111111111111111IIIIIIIIIIIIIIIIIIIIIIIIIIIIII
AAAAAAAAAAAAAAAAAAA1111111111111111IIIIIIIIIIIIIIIIIIIIIIIIIIIII
AAAAAAAAAAAAAAAAAAAA1111111111111111IIIIIIIIIIIIIIIIIIIIIIIIIIII
AAAAAAAAAAAAAAAAAAAAA1111111111111111IIIIIIIIIIIIIIIIIIIIIIIIIII
AAAAAAAAAAAAAAAAAAAAAA1111111111111111IIIIIIIIIIIIIIIIIIIIIIIIII
AAAAAAAAAAAAAAAAAAAAAAA1111111111111111IIIIIIIIIIIIIIIIIIIIIIIII
AAAAAAAAAAAAAAAAAAAAAAAA1111111111111111IIIIIIIIIIIIIIIIIIIIIIII
AAAAAAAAAAAAAAAAAAAAAAAAA1111111111111111IIIIIIIIIIIIIIIIIIIIIII
AAAAAAAAAAAAAAAAAAAAAAAAAA1111111111111111IIIIIIIIIIIIIIIIIIIIII
AAAAAAAAAAAAAAAAAAAAAAAAAAA1111111111111111IIIIIIIIIIIIIIIIIIIII
AAAAAAAAAAAAAAAAAAAAAAAAAAAA1111111111111111IIIIIIIIIIIIIIIIIIII
AAAAAAAAAAAAAAAAAAAAAAAAAAAAA1111111111111111IIIIIIIIIIIIIIIIIII
AAAAAAAAAAAAAAAAAAAAAAAAAAAAAA1111111111111111IIIIIIIIIIIIIIIIII
AAAAAAAAAAAAAAAAAAAAAAAAAAAAAAA1111111111111111IIIIIIIIIIIIIIIII
AAAAAAAAAAAAAAAAAAAAAAAAAAAAAAAA1111111111111111IIIIIIIIIIIIIIII
AAAAAAAAAAAAAAAAAAAAAAAAAAAAAAAAA1111111111111111IIIIIIIIIIIIIII
AAAAAAAAAAAAAAAAAAAAAAAAAAAAAAAAAA1111111111111111IIIIIIIIIIIIII
AAAAAAAAAAAAAAAAAAAAAAAAAAAAAAAAAAA1111111111111111IIIIIIIIIIIII
AAAAAAAAAAAAAAAAAAAAAAAAAAAAAAAAAAAA1111111111111111IIIIIIIIIIII
AAAAAAAAAAAAAAAAAAAAAAAAAAAAAAAAAAAAA1111111111111111IIIIIIIIIII
AAAAAAAAAAAAAAAAAAAAAAAAAAAAAAAAAAAAAA1111111111111111IIIIIIIIII
AAAAAAAAAAAAAAAAAAAAAAAAAAAAAAAAAAAAAAA1111111111111111IIIIIIIII
AAAAAAAAAAAAAAAAAAAAAAAAAAAAAAAAAAAAAAAA1111111111111111IIIIIIII
AAAAAAAAAAAAAAAAAAAAAAAAAAAAAAAAAAAAAAAAA1111111111111111IIIIIII
AAAAAAAAAAAAAAAAAAAAAAAAAAAAAAAAAAAAAAAAAA1111111111111111IIIIII
AAAAAAAAAAAAAAAAAAAAAAAAAAAAAAAAAAAAAAAAAAA1111111111111111IIIII
AAAAAAAAAAAAAAAAAAAAAAAAAAAAAAAAAAAAAAAAAAAA1111111111111111IIII
AAAAAAAAAAAAAAAAAAAAAAAAAAAAAAAAAAAAAAAAAAAAA1111111111111111III
AAAAAAAAAAAAAAAAAAAAAAAAAAAAAAAAAAAAAAAAAAAAAA1111111111111111II
AAAAAAAAAAAAAAAAAAAAAAAAAAAAAAAAAAAAAAAAAAAAAAA1111111111111111I
AAAAAAAAAAAAAAAAAAAAAAAAAAAAAAAAAAAAAAAAAAAAAAAA1111111111111111
AAAAAAAAAAAAAAAAAAAAAAAAAAAAAAAAAAAAAAAAAAAAAAAAA111111111111111
AAAAAAAAAAAAAAAAAAAAAAAAAAAAAAAAAAAAAAAAAAAAAAAAAA11111111111111
AAAAAAAAAAAAAAAAAAAAAAAAAAAAAAAAAAAAAAAAAAAAAAAAAAA1111111111111
AAAAAAAAAAAAAAAAAAAAAAAAAAAAAAAAAAAAAAAAAAAAAAAAAAAA111111111111
AAAAAAAAAAAAAAAAAAAAAAAAAAAAAAAAAAAAAAAAAAAAAAAAAAAAA11111111111
AAAAAAAAAAAAAAAAAAAAAAAAAAAAAAAAAAAAAAAAAAAAAAAAAAAAAA1111111111
AAAAAAAAAAAAAAAAAAAAAAAAAAAAAAAAAAAAAAAAAAAAAAAAAAAAAAA111111111
AAAAAAAAAAAAAAAAAAAAAAAAAAAAAAAAAAAAAAAAAAAAAAAAAAAAAAAA11111111
AAAAAAAAAAAAAAAAAAAAAAAAAAAAAAAAAAAAAAAAAAAAAAAAAAAAAAAAA1111111
AAAAAAAAAAAAAAAAAAAAAAAAAAAAAAAAAAAAAAAAAAAAAAAAAAAAAAAAAA111111
AAAAAAAAAAAAAAAAAAAAAAAAAAAAAAAAAAAAAAAAAAAAAAAAAAAAAAAAAAA11111
AAAAAAAAAAAAAAAAAAAAAAAAAAAAAAAAAAAAAAAAAAAAAAAAAAAAAAAAAAAA1111
AAAAAAAAAAAAAAAAAAAAAAAAAAAAAAAAAAAAAAAAAAAAAAAAAAAAAAAAAAAAA111
AAAAAAAAAAAAAAAAAAAAAAAAAAAAAAAAAAAAAAAAAAAAAAAAAAAAAAAAAAAAAA11
AAAAAAAAAAAAAAAAAAAAAAAAAAAAAAAAAAAAAAAAAAAAAAAAAAAAAAAAAAAAAAA1
AAAAAAAAAAAAAAAAAAAAAAAAAAAAAAAAAAAAAAAAAAAAAAAAAAAAAAAAAAAAAAAA
A1IIIIIIIIIIIIIIIIIIIIIIIIIIIIIIIIIIIIIIIIIIIIIIIIIIIIIIIIIIIIII
A111IIIIIIIIIIII1IIIIIIIIIIIIIIIIIIIIIIIIIIIIIIIIIIIIIIIIIIIIIII
AA111IIIIIIIIIII11IIIIIIIIIIIIIIIIIIIIIIIIIIIIIIIIIIIIIIIIIIIIII
AAA11IIIIIIIIIII11IIIIIIIIIIIIIIIIIIIIIIIIIIIIIIIIIIIIIIIIIIIIII
AAA111IIIIIIIIII111IIIIIIIIIIIIIIIIIIIIIIIIIIIIIIIIIIIIIIIIIIIII
AAAA11IIIIIIIIII111IIIIIIIIIIIIIIIIIIIIIIIIIIIIIIIIIIIIIIIIIIIII
AAAA111IIIIIIIII1111IIIIIIIIIIIIIIIIIIIIIIIIIIIIIIIIIIIIIIIIIIII
AAAAA111IIIIIIII11111IIIIIIIIIIIIIIIIIIIIIIIIIIIIIIIIIIIIIIIIIII
AAAAAA111IIIIIII111111IIIIIIIIIIIIIIIIIIIIIIIIIIIIIIIIIIIIIIIIII
AAAAAAA111IIIIII1111111IIIIIIIIIIIIIIIIIIIIIIIIIIIIIIIIIIIIIIIII
AAAAAAAA111IIIII11111111IIIIIIIIIIIIIIIIIIIIIIIIIIIIIIIIIIIIIIII
AAAAAAAAA111IIII111111111IIIIIIIIIIIIIIIIIIIIIIIIIIIIIIIIIIIIIII
AAAAAAAAAA111III1111111111IIIIIIIIIIIIIIIIIIIIIIIIIIIIIIIIIIIIII
AAAAAAAAAAA111II11111111111IIIIIIIIIIIIIIIIIIIIIIIIIIIIIIIIIIIII
AAAAAAAAAAAA111I111111111111IIIIIIIIIIIIIIIIIIIIIIIIIIIIIIIIIIII
AAAAAAAAAAAAA1111111111111111IIIIIIIIIIIIIIIIIIIIIIIIIIIIIIIIIII
AAAAAAAAAAAAAA1111111111111111IIIIIIIIIIIIIIIIIIIIIIIIIIIIIIIIII
AAAAAAAAAAAAAAA1111111111111111IIIIIIIIIIIIIIIIIIIIIIIIIIIIIIIII
AAAAAAAAAAAAAAAA1111111111111111IIIIIIIIIIIIIIIIIIIIIIIIIIIIIIII
AAAAAAAAAAAAAAAAA1111111111111111IIIIIIIIIIIIIIIIIIIIIIIIIIIIIII
AAAAAAAAAAAAAAAAAA1111111111111111IIIIIIIIIIIIIIIIIIIIIIIIIIIIII
AAAAAAAAAAAAAAAAAAA1111111111111111IIIIIIIIIIIIIIIIIIIIIIIIIIIII
AAAAAAAAAAAAAAAAAAAA1111111111111111IIIIIIIIIIIIIIIIIIIIIIIIIIII
AAAAAAAAAAAAAAAAAAAAA1111111111111111IIIIIIIIIIIIIIIIIIIIIIIIIII
AAAAAAAAAAAAAAAAAAAAAA1111111111111111IIIIIIIIIIIIIIIIIIIIIIIIII
AAAAAAAAAAAAAAAAAAAAAAA1111111111111111IIIIIIIIIIIIIIIIIIIIIIIII
AAAAAAAAAAAAAAAAAAAAAAAA1111111111111111IIIIIIIIIIIIIIIIIIIIIIII
AAAAAAAAAAAAAAAAAAAAAAAAA1111111111111111IIIIIIIIIIIIIIIIIIIIIII
AAAAAAAAAAAAAAAAAAAAAAAAAA1111111111111111IIIIIIIIIIIIIIIIIIIIII
AAAAAAAAAAAAAAAAAAAAAAAAAAA1111111111111111IIIIIIIIIIIIIIIIIIIII
AAAAAAAAAAAAAAAAAAAAAAAAAAAA1111111111111111IIIIIIIIIIIIIIIIIIII
AAAAAAAAAAAAAAAAAAAAAAAAAAAAA1111111111111111IIIIIIIIIIIIIIIIIII
AAAAAAAAAAAAAAAAAAAAAAAAAAAAAA1111111111111111IIIIIIIIIIIIIIIIII
AAAAAAAAAAAAAAAAAAAAAAAAAAAAAAA1111111111111111IIIIIIIIIIIIIIIII
AAAAAAAAAAAAAAAAAAAAAAAAAAAAAAAA1111111111111111IIIIIIIIIIIIIIII
AAAAAAAAAAAAAAAAAAAAAAAAAAAAAAAAA1111111111111111IIIIIIIIIIIIIII
AAAAAAAAAAAAAAAAAAAAAAAAAAAAAAAAAA1111111111111111IIIIIIIIIIIIII
AAAAAAAAAAAAAAAAAAAAAAAAAAAAAAAAAAA1111111111111111IIIIIIIIIIIII
AAAAAAAAAAAAAAAAAAAAAAAAAAAAAAAAAAAA1111111111111111IIIIIIIIIIII
AAAAAAAAAAAAAAAAAAAAAAAAAAAAAAAAAAAAA1111111111111111IIIIIIIIIII
AAAAAAAAAAAAAAAAAAAAAAAAAAAAAAAAAAAAAA1111111111111111IIIIIIIIII
AAAAAAAAAAAAAAAAAAAAAAAAAAAAAAAAAAAAAAA1111111111111111IIIIIIIII
AAAAAAAAAAAAAAAAAAAAAAAAAAAAAAAAAAAAAAAA1111111111111111IIIIIIII
AAAAAAAAAAAAAAAAAAAAAAAAAAAAAAAAAAAAAAAAA1111111111111111IIIIIII
AAAAAAAAAAAAAAAAAAAAAAAAAAAAAAAAAAAAAAAAAA1111111111111111IIIIII
AAAAAAAAAAAAAAAAAAAAAAAAAAAAAAAAAAAAAAAAAAA1111111111111111IIIII
AAAAAAAAAAAAAAAAAAAAAAAAAAAAAAAAAAAAAAAAAAAA1111111111111111IIII
AAAAAAAAAAAAAAAAAAAAAAAAAAAAAAAAAAAAAAAAAAAAA1111111111111111III
AAAAAAAAAAAAAAAAAAAAAAAAAAAAAAAAAAAAAAAAAAAAAA1111111111111111II
AAAAAAAAAAAAAAAAAAAAAAAAAAAAAAAAAAAAAAAAAAAAAAA1111111111111111I
AAAAAAAAAAAAAAAAAAAAAAAAAAAAAAAAAAAAAAAAAAAAAAAA1111111111111111
AAAAAAAAAAAAAAAAAAAAAAAAAAAAAAAAAAAAAAAAAAAAAAAAA111111111111111
AAAAAAAAAAAAAAAAAAAAAAAAAAAAAAAAAAAAAAAAAAAAAAAAAA11111111111111
AAAAAAAAAAAAAAAAAAAAAAAAAAAAAAAAAAAAAAAAAAAAAAAAAAA1111111111111
AAAAAAAAAAAAAAAAAAAAAAAAAAAAAAAAAAAAAAAAAAAAAAAAAAAA111111111111
AAAAAAAAAAAAAAAAAAAAAAAAAAAAAAAAAAAAAAAAAAAAAAAAAAAAA11111111111
AAAAAAAAAAAAAAAAAAAAAAAAAAAAAAAAAAAAAAAAAAAAAAAAAAAAAA1111111111
AAAAAAAAAAAAAAAAAAAAAAAAAAAAAAAAAAAAAAAAAAAAAAAAAAAAAAA111111111
AAAAAAAAAAAAAAAAAAAAAAAAAAAAAAAAAAAAAAAAAAAAAAAAAAAAAAAA11111111
AAAAAAAAAAAAAAAAAAAAAAAAAAAAAAAAAAAAAAAAAAAAAAAAAAAAAAAAA1111111
AAAAAAAAAAAAAAAAAAAAAAAAAAAAAAAAAAAAAAAAAAAAAAAAAAAAAAAAAA111111
AAAAAAAAAAAAAAAAAAAAAAAAAAAAAAAAAAAAAAAAAAAAAAAAAAAAAAAAAAA11111
AAAAAAAAAAAAAAAAAAAAAAAAAAAAAAAAAAAAAAAAAAAAAAAAAAAAAAAAAAAA1111
AAAAAAAAAAAAAAAAAAAAAAAAAAAAAAAAAAAAAAAAAAAAAAAAAAAAAAAAAAAAA111
AAAAAAAAAAAAAAAAAAAAAAAAAAAAAAAAAAAAAAAAAAAAAAAAAAAAAAAAAAAAAA11
AAAAAAAAAAAAAAAAAAAAAAAAAAAAAAAAAAAAAAAAAAAAAAAAAAAAAAAAAAAAAAA1
AAAAAAAAAAAAAAAAAAAAAAAAAAAAAAAAAAAAAAAAAAAAAAAAAAAAAAAAAAAAAAAA
IIIIAIIIIIIIIIIIIIIIIIIII1IIIIIIIIIIIIIIIIIIII2IIIIIIIIIIIIIIIII
IIIIAIIIIIAIIIIIIIIIIIIII1IIIII1IIIIIIIIIIIIII2IIIII2IIIIIIIIIII
IIIIAIIIIIAIIIIAIIIIIIIII1IIIII1IIIIIIIIIIIIII2IIIII2IIIIIIIIIII
IIIIAIIIIIAIIIIAIIIIAIIII1IIIII1IIIIIIIII1IIII2IIIII2IIIIIIIIIII
IIIIAIIIIIAIIIIAIIIIAIIIIAIIIII1IIIIIIIII1IIII1IIIII2IIIIIIIIIII
IIIIAIIIIIAIIIIAIIIIAIIIIAIIIIIAIIIIIIIII1IIII1IIIII1IIIIIIIIIII
IIIIAIIIIIAIIIIAIIIIAIIIIAIIIIIAIIIIAIIII1IIII1IIIII1IIII1IIIIII
IIIIAIIIIIAIIIIAIIIIAIIIIAIIIIIAIIIIAIIII1IIIIAIIIII1IIII1IIIIII
IIIIAIIIIIAIIIIAIIIIAIIIIAIIIIIAIIIIAIIIIAIIIIAIIIII1IIII1IIII1I
IIIIAIIIIIAIIIIAIIIIAIIIIAIIIIIAIIIIAIIIIAIIIIAIIIII1IIIIAIIII1I
IIIIAIIIIIAIIIIAIIIIAIIIIAIIIIIAIIIIAIIIIAIIIIAIIIIIAIIIIAIIII1I
IIIIAIIIIIAIIIIAIIIIAIIIIAIIIIIAIIIIAIIIIAIIIIAIIIIIAIIIIAIIIIAI
III1AIIIIIAIIIIAIIIIAIII2AIIIIIAIIIIAIIIIAIIIIAIIIIIAIIIIAIIIIAI
III1AIII1AAIIIIAIIIIAIII2AIII2IAIIIIAIIIIAIIIIAIIIIIAIIIIAIIIIAI
III1AIII1AAIIIIAII1AAIII2AIII2IAIIIIAII2IAIIIIAIIIIIAIIIIAIIIIAI
III1AIII1AAII1AAII1AAIII2AIII2IAII2IAII2IAIIIIAIIIIIAIIIIAIIIIAI
III1AIII1AAII1AAII1AAIII1AIII2IAII2IAII2IAIII2AIIIIIAIIIIAIIIIAI
III1AIII1AAII1AAII1AAIII1AIII1AAII2IAII2IAIII2AIII2IAIIIIAIIIIAI
III1AIII1AAII1AAII1AAIII1AIII1AAII1AAII2IAIII2AIII2IAII2IAIIIIAI
III1AIII1AAII1AAII1AAIII1AIII1AAII1AAII1AAIII2AIII2IAII2IAII2IAI
III1AIII1AAII1AAII1AAIII1AIII1AAII1AAII1AAIII2AIII2IAII2AAII2IAI
III1AIII1AAII1AAII1AAIII1AIII1AAII1AAII1AAIII2AIII2AAII2AAII2IAI
III1AIII1AAII1AAII1AAIII1AIII1AAII1AAII1AAIII2AIII2AAII2AAII2AAI
A11IIIIIIIIIIIIIIIIIIIIIIIIIIIIIIIIIIIIIIIIIIIIIIIIIIIIIIIIIIIII
A1111IIIIIIIIIIIII1IIIIIIIIIIIIIIIIIIIIIIIIIIIIIIIIIIIIIIIIIIIII
AA111IIIIIIIIIIIII1IIIIIIIIIIIIIIIIIIIIIIIIIIIIIIIIIIIIIIIIIIIII
AA1111IIIIIIIIIIII11IIIIIIIIIIIIIIIIIIIIIIIIIIIIIIIIIIIIIIIIIIII
AAA111IIIIIIIIIIII11IIIIIIIIIIIIIIIIIIIIIIIIIIIIIIIIIIIIIIIIIIII
AAA1111IIIIIIIIIII111IIIIIIIIIIIIIIIIIIIIIIIIIIIIIIIIIIIIIIIIIII
AAAA1111IIIIIIIIII1111IIIIIIIIIIIIIIIIIIIIIIIIIIIIIIIIIIIIIIIIII
AAAAA1111IIIIIIIII11111IIIIIIIIIIIIIIIIIIIIIIIIIIIIIIIIIIIIIIIII
AAAAAA1111IIIIIIII11111IIIIIIIIIIIIIIIIIIIIIIIIIIIIIIIIIIIIIIIII
AAAAAA1111IIIIIIII111111IIIIIIIIIIIIIIIIIIIIIIIIIIIIIIIIIIIIIIII
AAAAAAA1111IIIIIII1111111IIIIIIIIIIIIIIIIIIIIIIIIIIIIIIIIIIIIIII
AAAAAAAA1111IIIIII11111111IIIIIIIIIIIIIIIIIIIIIIIIIIIIIIIIIIIIII
AAAAAAAAA1111IIIII111111111IIIIIIIIIIIIIIIIIIIIIIIIIIIIIIIIIIIII
AAAAAAAAAA1111IIII1111111111IIIIIIIIIIIIIIIIIIIIIIIIIIIIIIIIIIII
AAAAAAAAAAA1111III11111111111IIIIIIIIIIIIIIIIIIIIIIIIIIIIIIIIIII
AAAAAAAAAAAA1111II111111111111IIIIIIIIIIIIIIIIIIIIIIIIIIIIIIIIII
AAAAAAAAAAAAA1111I1111111111111IIIIIIIIIIIIIIIIIIIIIIIIIIIIIIIII
AAAAAAAAAAAAAA111111111111111111IIIIIIIIIIIIIIIIIIIIIIIIIIIIIIII
AAAAAAAAAAAAAAA111111111111111111IIIIIIIIIIIIIIIIIIIIIIIIIIIIIII
AAAAAAAAAAAAAAAA111111111111111111IIIIIIIIIIIIIIIIIIIIIIIIIIIIII
AAAAAAAAAAAAAAAAA111111111111111111IIIIIIIIIIIIIIIIIIIIIIIIIIIII
AAAAAAAAAAAAAAAAAA111111111111111111IIIIIIIIIIIIIIIIIIIIIIIIIIII
AAAAAAAAAAAAAAAAAAA111111111111111111IIIIIIIIIIIIIIIIIIIIIIIIIII
AAAAAAAAAAAAAAAAAAAA111111111111111111IIIIIIIIIIIIIIIIIIIIIIIIII
AAAAAAAAAAAAAAAAAAAAA111111111111111111IIIIIIIIIIIIIIIIIIIIIIIII
AAAAAAAAAAAAAAAAAAAAAA111111111111111111IIIIIIIIIIIIIIIIIIIIIIII
AAAAAAAAAAAAAAAAAAAAAAA111111111111111111IIIIIIIIIIIIIIIIIIIIIII
AAAAAAAAAAAAAAAAAAAAAAAA111111111111111111IIIIIIIIIIIIIIIIIIIIII
AAAAAAAAAAAAAAAAAAAAAAAAA111111111111111111IIIIIIIIIIIIIIIIIIIII
AAAAAAAAAAAAAAAAAAAAAAAAAA111111111111111111IIIIIIIIIIIIIIIIIIII
AAAAAAAAAAAAAAAAAAAAAAAAAAA111111111111111111IIIIIIIIIIIIIIIIIII
AAAAAAAAAAAAAAAAAAAAAAAAAAAA111111111111111111IIIIIIIIIIIIIIIIII
AAAAAAAAAAAAAAAAAAAAAAAAAAAAA111111111111111111IIIIIIIIIIIIIIIII
AAAAAAAAAAAAAAAAAAAAAAAAAAAAAA111111111111111111IIIIIIIIIIIIIIII
AAAAAAAAAAAAAAAAAAAAAAAAAAAAAAA111111111111111111IIIIIIIIIIIIIII
AAAAAAAAAAAAAAAAAAAAAAAAAAAAAAAA111111111111111111IIIIIIIIIIIIII
AAAAAAAAAAAAAAAAAAAAAAAAAAAAAAAAA111111111111111111IIIIIIIIIIIII
AAAAAAAAAAAAAAAAAAAAAAAAAAAAAAAAAA111111111111111111IIIIIIIIIIII
AAAAAAAAAAAAAAAAAAAAAAAAAAAAAAAAAAA111111111111111111IIIIIIIIIII
AAAAAAAAAAAAAAAAAAAAAAAAAAAAAAAAAAAA111111111111111111IIIIIIIIII
AAAAAAAAAAAAAAAAAAAAAAAAAAAAAAAAAAAAA111111111111111111IIIIIIIII
AAAAAAAAAAAAAAAAAAAAAAAAAAAAAAAAAAAAAA111111111111111111IIIIIIII
AAAAAAAAAAAAAAAAAAAAAAAAAAAAAAAAAAAAAAA111111111111111111IIIIIII
AAAAAAAAAAAAAAAAAAAAAAAAAAAAAAAAAAAAAAAA111111111111111111IIIIII
AAAAAAAAAAAAAAAAAAAAAAAAAAAAAAAAAAAAAAAAA111111111111111111IIIII
AAAAAAAAAAAAAAAAAAAAAAAAAAAAAAAAAAAAAAAAAA111111111111111111IIII
AAAAAAAAAAAAAAAAAAAAAAAAAAAAAAAAAAAAAAAAAAA111111111111111111III
AAAAAAAAAAAAAAAAAAAAAAAAAAAAAAAAAAAAAAAAAAAA111111111111111111II
AAAAAAAAAAAAAAAAAAAAAAAAAAAAAAAAAAAAAAAAAAAAA111111111111111111I
AAAAAAAAAAAAAAAAAAAAAAAAAAAAAAAAAAAAAAAAAAAAAA111111111111111111
AAAAAAAAAAAAAAAAAAAAAAAAAAAAAAAAAAAAAAAAAAAAAAA11111111111111111
AAAAAAAAAAAAAAAAAAAAAAAAAAAAAAAAAAAAAAAAAAAAAAAA1111111111111111
AAAAAAAAAAAAAAAAAAAAAAAAAAAAAAAAAAAAAAAAAAAAAAAAA111111111111111
AAAAAAAAAAAAAAAAAAAAAAAAAAAAAAAAAAAAAAAAAAAAAAAAAA11111111111111
AAAAAAAAAAAAAAAAAAAAAAAAAAAAAAAAAAAAAAAAAAAAAAAAAAA1111111111111
AAAAAAAAAAAAAAAAAAAAAAAAAAAAAAAAAAAAAAAAAAAAAAAAAAAA111111111111
AAAAAAAAAAAAAAAAAAAAAAAAAAAAAAAAAAAAAAAAAAAAAAAAAAAAA11111111111
AAAAAAAAAAAAAAAAAAAAAAAAAAAAAAAAAAAAAAAAAAAAAAAAAAAAAA1111111111
AAAAAAAAAAAAAAAAAAAAAAAAAAAAAAAAAAAAAAAAAAAAAAAAAAAAAAA111111111
AAAAAAAAAAAAAAAAAAAAAAAAAAAAAAAAAAAAAAAAAAAAAAAAAAAAAAAA11111111
AAAAAAAAAAAAAAAAAAAAAAAAAAAAAAAAAAAAAAAAAAAAAAAAAAAAAAAAA1111111
AAAAAAAAAAAAAAAAAAAAAAAAAAAAAAAAAAAAAAAAAAAAAAAAAAAAAAAAAA111111
AAAAAAAAAAAAAAAAAAAAAAAAAAAAAAAAAAAAAAAAAAAAAAAAAAAAAAAAAAA11111
AAAAAAAAAAAAAAAAAAAAAAAAAAAAAAAAAAAAAAAAAAAAAAAAAAAAAAAAAAAA1111
AAAAAAAAAAAAAAAAAAAAAAAAAAAAAAAAAAAAAAAAAAAAAAAAAAAAAAAAAAAAA111
AAAAAAAAAAAAAAAAAAAAAAAAAAAAAAAAAAAAAAAAAAAAAAAAAAAAAAAAAAAAAA11
AAAAAAAAAAAAAAAAAAAAAAAAAAAAAAAAAAAAAAAAAAAAAAAAAAAAAAAAAAAAAAA1
AAAAAAAAAAAAAAAAAAAAAAAAAAAAAAAAAAAAAAAAAAAAAAAAAAAAAAAAAAAAAAAA
A1IIIIIIIIIIIIIIIIIIIIIIIIIIIIIIIIIIIIIIIIIIIIIIIIIIIIIIIIIIIIII
A111IIIIIIIIIIIIIIIIIIIIIIIIIIIIIIIIIIIIIIIIIIIIIIIIIIIIIIIIIIII
A1111IIIIIIIIIII1IIIIIIIIIIIIIIIIIIIIIIIIIIIIIIIIIIIIIIIIIIIIIII
AA111IIIIIIIIIII1IIIIIIIIIIIIIIIIIIIIIIIIIIIIIIIIIIIIIIIIIIIIIII
AA1111IIIIIIIIII11IIIIIIIIIIIIIIIIIIIIIIIIIIIIIIIIIIIIIIIIIIIIII
AAA1111IIIIIIIII11IIIIIIIIIIIIIIIIIIIIIIIIIIIIIIIIIIIIIIIIIIIIII
AAA1111IIIIIIIII111IIIIIIIIIIIIIIIIIIIIIIIIIIIIIIIIIIIIIIIIIIIII
AAAA111IIIIIIIII111IIIIIIIIIIIIIIIIIIIIIIIIIIIIIIIIIIIIIIIIIIIII
AAAA1111IIIIIIII1111IIIIIIIIIIIIIIIIIIIIIIIIIIIIIIIIIIIIIIIIIIII
AAAAA1111IIIIIII1111IIIIIIIIIIIIIIIIIIIIIIIIIIIIIIIIIIIIIIIIIIII
AAAAA1111IIIIIII11111IIIIIIIIIIIIIIIIIIIIIIIIIIIIIIIIIIIIIIIIIII
AAAAAA1111IIIIII11111IIIIIIIIIIIIIIIIIIIIIIIIIIIIIIIIIIIIIIIIIII
AAAAAA1111IIIIII111111IIIIIIIIIIIIIIIIIIIIIIIIIIIIIIIIIIIIIIIIII
AAAAAAA1111IIIII1111111IIIIIIIIIIIIIIIIIIIIIIIIIIIIIIIIIIIIIIIII
AAAAAAAA1111IIII11111111IIIIIIIIIIIIIIIIIIIIIIIIIIIIIIIIIIIIIIII
AAAAAAAAA1111III111111111IIIIIIIIIIIIIIIIIIIIIIIIIIIIIIIIIIIIIII
AAAAAAAAAA1111II1111111111IIIIIIIIIIIIIIIIIIIIIIIIIIIIIIIIIIIIII
AAAAAAAAAAA1111I11111111111IIIIIIIIIIIIIIIIIIIIIIIIIIIIIIIIIIIII
AAAAAAAAAAAA1111111111111111IIIIIIIIIIIIIIIIIIIIIIIIIIIIIIIIIIII
AAAAAAAAAAAAA1111111111111111IIIIIIIIIIIIIIIIIIIIIIIIIIIIIIIIIII
AAAAAAAAAAAAAA1111111111111111IIIIIIIIIIIIIIIIIIIIIIIIIIIIIIIIII
AAAAAAAAAAAAAAA1111111111111111IIIIIIIIIIIIIIIIIIIIIIIIIIIIIIIII
AAAAAAAAAAAAAAAA1111111111111111IIIIIIIIIIIIIIIIIIIIIIIIIIIIIIII
AAAAAAAAAAAAAAAAA1111111111111111IIIIIIIIIIIIIIIIIIIIIIIIIIIIIII
AAAAAAAAAAAAAAAAAA1111111111111111IIIIIIIIIIIIIIIIIIIIIIIIIIIIII
AAAAAAAAAAAAAAAAAAA1111111111111111IIIIIIIIIIIIIIIIIIIIIIIIIIIII
AAAAAAAAAAAAAAAAAAAA1111111111111111IIIIIIIIIIIIIIIIIIIIIIIIIIII
AAAAAAAAAAAAAAAAAAAAA1111111111111111IIIIIIIIIIIIIIIIIIIIIIIIIII
AAAAAAAAAAAAAAAAAAAAAA1111111111111111IIIIIIIIIIIIIIIIIIIIIIIIII
AAAAAAAAAAAAAAAAAAAAAAA1111111111111111IIIIIIIIIIIIIIIIIIIIIIIII
AAAAAAAAAAAAAAAAAAAAAAAA1111111111111111IIIIIIIIIIIIIIIIIIIIIIII
AAAAAAAAAAAAAAAAAAAAAAAAA1111111111111111IIIIIIIIIIIIIIIIIIIIIII
AAAAAAAAAAAAAAAAAAAAAAAAAA1111111111111111IIIIIIIIIIIIIIIIIIIIII
AAAAAAAAAAAAAAAAAAAAAAAAAAA1111111111111111IIIIIIIIIIIIIIIIIIIII
AAAAAAAAAAAAAAAAAAAAAAAAAAAA1111111111111111IIIIIIIIIIIIIIIIIIII
AAAAAAAAAAAAAAAAAAAAAAAAAAAAA1111111111111111IIIIIIIIIIIIIIIIIII
AAAAAAAAAAAAAAAAAAAAAAAAAAAAAA1111111111111111IIIIIIIIIIIIIIIIII
AAAAAAAAAAAAAAAAAAAAAAAAAAAAAAA1111111111111111IIIIIIIIIIIIIIIII
AAAAAAAAAAAAAAAAAAAAAAAAAAAAAAAA1111111111111111IIIIIIIIIIIIIIII
AAAAAAAAAAAAAAAAAAAAAAAAAAAAAAAAA1111111111111111IIIIIIIIIIIIIII
AAAAAAAAAAAAAAAAAAAAAAAAAAAAAAAAAA1111111111111111IIIIIIIIIIIIII
AAAAAAAAAAAAAAAAAAAAAAAAAAAAAAAAAAA1111111111111111IIIIIIIIIIIII
AAAAAAAAAAAAAAAAAAAAAAAAAAAAAAAAAAAA1111111111111111IIIIIIIIIIII
AAAAAAAAAAAAAAAAAAAAAAAAAAAAAAAAAAAAA1111111111111111IIIIIIIIIII
AAAAAAAAAAAAAAAAAAAAAAAAAAAAAAAAAAAAAA1111111111111111IIIIIIIIII
AAAAAAAAAAAAAAAAAAAAAAAAAAAAAAAAAAAAAAA1111111111111111IIIIIIIII
AAAAAAAAAAAAAAAAAAAAAAAAAAAAAAAAAAAAAAAA1111111111111111IIIIIIII
AAAAAAAAAAAAAAAAAAAAAAAAAAAAAAAAAAAAAAAAA1111111111111111IIIIIII
AAAAAAAAAAAAAAAAAAAAAAAAAAAAAAAAAAAAAAAAAA1111111111111111IIIIII
AAAAAAAAAAAAAAAAAAAAAAAAAAAAAAAAAAAAAAAAAAA1111111111111111IIIII
AAAAAAAAAAAAAAAAAAAAAAAAAAAAAAAAAAAAAAAAAAAA1111111111111111IIII
AAAAAAAAAAAAAAAAAAAAAAAAAAAAAAAAAAAAAAAAAAAAA1111111111111111III
AAAAAAAAAAAAAAAAAAAAAAAAAAAAAAAAAAAAAAAAAAAAAA1111111111111111II
AAAAAAAAAAAAAAAAAAAAAAAAAAAAAAAAAAAAAAAAAAAAAAA1111111111111111I
AAAAAAAAAAAAAAAAAAAAAAAAAAAAAAAAAAAAAAAAAAAAAAAA1111111111111111
AAAAAAAAAAAAAAAAAAAAAAAAAAAAAAAAAAAAAAAAAAAAAAAAA111111111111111
AAAAAAAAAAAAAAAAAAAAAAAAAAAAAAAAAAAAAAAAAAAAAAAAAA11111111111111
AAAAAAAAAAAAAAAAAAAAAAAAAAAAAAAAAAAAAAAAAAAAAAAAAAA1111111111111
AAAAAAAAAAAAAAAAAAAAAAAAAAAAAAAAAAAAAAAAAAAAAAAAAAAA111111111111
AAAAAAAAAAAAAAAAAAAAAAAAAAAAAAAAAAAAAAAAAAAAAAAAAAAAA11111111111
AAAAAAAAAAAAAAAAAAAAAAAAAAAAAAAAAAAAAAAAAAAAAAAAAAAAAA1111111111
AAAAAAAAAAAAAAAAAAAAAAAAAAAAAAAAAAAAAAAAAAAAAAAAAAAAAAA111111111
AAAAAAAAAAAAAAAAAAAAAAAAAAAAAAAAAAAAAAAAAAAAAAAAAAAAAAAA11111111
AAAAAAAAAAAAAAAAAAAAAAAAAAAAAAAAAAAAAAAAAAAAAAAAAAAAAAAAA1111111
AAAAAAAAAAAAAAAAAAAAAAAAAAAAAAAAAAAAAAAAAAAAAAAAAAAAAAAAAA111111
AAAAAAAAAAAAAAAAAAAAAAAAAAAAAAAAAAAAAAAAAAAAAAAAAAAAAAAAAAA11111
AAAAAAAAAAAAAAAAAAAAAAAAAAAAAAAAAAAAAAAAAAAAAAAAAAAAAAAAAAAA1111
AAAAAAAAAAAAAAAAAAAAAAAAAAAAAAAAAAAAAAAAAAAAAAAAAAAAAAAAAAAAA111
AAAAAAAAAAAAAAAAAAAAAAAAAAAAAAAAAAAAAAAAAAAAAAAAAAAAAAAAAAAAAA11
AAAAAAAAAAAAAAAAAAAAAAAAAAAAAAAAAAAAAAAAAAAAAAAAAAAAAAAAAAAAAAA1
AAAAAAAAAAAAAAAAAAAAAAAAAAAAAAAAAAAAAAAAAAAAAAAAAAAAAAAAAAAAAAAA
IIIIAIIIIIIIIIIIIIIIIIIII1IIIIIIIIIIIIIIIIIIII2IIIIIIIIIIIIIIIII
IIIIAIIIIIAIIIIIIIIIIIIII1IIIII1IIIIIIIIIIIIII2IIIII2IIIIIIIIIII
IIIIAIIIIIAIIIIIIIIIAIIII1IIIII1IIIIIIIII1IIII2IIIII2IIIIIIIII2I
IIIIAIIIIIAIIIIIIIIIAIIII1IIIIIAIIIIIIIII1IIII2IIIII1IIIIIIIII2I
IIIIAIIIIIAIIIIAIIIIAIIII1IIIIIAIIII1IIII1IIII2IIIII1IIII2IIII2I
IIIIAIIIIIAIIIIAIIIIAIIII1IIIIIAIIII1IIIIAIIII2IIIII1IIII2IIII1I
IIIIAIIIIIAIIIIAIIIIAIIIIAIIIIIAIIII1IIIIAIIII1IIIII1IIII2IIII1I
IIIIAIIIIIAIIIIAIIIIAIIIIAIIIIIAIIII1IIIIAIIII1IIIIIAIIII2IIII1I
IIIIAIIIIIAIIIIAIIIIAIIIIAIIIIIAIIIIAIIIIAIIII1IIIIIAIIII1IIII1I
IIIIAIIIIIAIIIIAIIIIAIIIIAIIIIIAIIIIAIIIIAIIII1IIIIIAIIIIAIIII1I
IIIIAIIIIIAIIIIAIIIIAIIIIAIIIIIAIIIIAIIIIAIIIIAIIIIIAIIIIAIIII1I
IIIIAIIIIIAIIIIAIIIIAIIIIAIIIIIAIIIIAIIIIAIIIIAIIIIIAIIIIAIIIIAI
III1AIIII1AIIIIAIIIIAIII2AIIIIIAIIIIAIIIIAIIIIAIIIIIAIIIIAIIIIAI
III1AIIIIAAIII1AIIIIAIII2AIIIIIAIIIIAIIIIAIIIIAIIIIIAIIIIAIIIIAI
III1AIIIIAAII1AAIII1AIII2AIIIIIAII2IAIIIIAIIIIAIIIIIAIIIIAIIIIAI
III1AIIIIAAII1AAIIIAAIII2AIIIIIAII2IAIIIIAIIIIAIIIIIAIIIIAIIIIAI
III1AIIIIAAII1AAIIIAAIII2AIIII1AII2IAIIIIAIIIIAIIIIIAIIIIAIIIIAI
III1AIIIIAAII1AAIIIAAIII2AIIIIAAII2IAIIIIAIIIIAIIIIIAIIIIAIIIIAI
III1AIIIIAAII1AAIIIAAIII2AIIIIAAII2AAIII1AIIIIAIIIIIAIIIIAIIIIAI
III1AIIIIAAII1AAIIIAAIII2AIIIIAAII2AAIIIAAIIIIAIIIIIAIIIIAIIIIAI
III1AIIIIAAII1AAIIIAAIII2AIIIIAAII2AAIIIAAIII1AIIII1AIIIIAIIIIAI
III1AIIIIAAII1AAIIIAAIII2AIIIIAAII2AAIIIAAIII1AIII1AAIII1AIIIIAI
III1AIIIIAAII1AAIIIAAIII2AIIIIAAII2AAIIIAAIII1AIII1AAIII1AIIIAAI
III1AIIIIAAII1AAIIIAAIII2AIIIIAAII2AAIIIAAIII1AIII1AAIIIAAIIIAAI
[MLOP] Prefetch Degree Mean: 4.83807
[MLOP] Prefetch Degree SD: 2.58849
[MLOP] Max Score Left Mean (%): 48.4897
[MLOP] Max Score Left SD (%): 28.3015
[MLOP] Max Score Right Mean (%): 86.5479
[MLOP] Max Score Right SD (%): 11.5259
 All Calls: 2590605
 Critical Calls: 2590605
------------------
Depth Distribution
------------------
depth 0: 0
depth 1: 2482081
depth 2: 1750700
depth 3: 1329261
depth 4: 1094109
depth 5: 888886
depth 6: 653758
depth 7: 388162
depth 8: 206786
depth 9: 91320
depth 10: 27851
depth 11: 8193
depth 12: 1803
depth 13: 113
depth 14: 0
depth 15: 0
depth 16: 0
depth 17: 0
depth 18: 0
depth 19: 0
depth 20: 0
depth 21: 0
depth 22: 0
depth 23: 0
depth 24: 0
depth 25: 0
depth 26: 0
depth 27: 0
depth 28: 0
depth 29: 0
Total: 8923023
-----------------------------
-----------------------------
	Captured at Filter
-----------------------------
depth 0: 0
depth 1: 109673
depth 2: 82279
depth 3: 76513
depth 4: 59324
depth 5: 49856
depth 6: 40403
depth 7: 26463
depth 8: 15837
depth 9: 7408
depth 10: 2626
depth 11: 862
depth 12: 243
depth 13: 50
depth 14: 0
depth 15: 0
depth 16: 0
depth 17: 0
depth 18: 0
depth 19: 0
depth 20: 0
depth 21: 0
depth 22: 0
depth 23: 0
depth 24: 0
depth 25: 0
depth 26: 0
depth 27: 0
depth 28: 0
depth 29: 0
-----------------------------
-----------------------------
		Lost at Page
-----------------------------
depth 0: 0
depth 1: 74119
depth 2: 69187
depth 3: 80088
depth 4: 93039
depth 5: 104229
depth 6: 100406
depth 7: 75306
depth 8: 51250
depth 9: 24893
depth 10: 7982
depth 11: 2661
depth 12: 784
depth 13: 75
depth 14: 0
depth 15: 0
depth 16: 0
depth 17: 0
depth 18: 0
depth 19: 0
depth 20: 0
depth 21: 0
depth 22: 0
depth 23: 0
depth 24: 0
depth 25: 0
depth 26: 0
depth 27: 0
depth 28: 0
depth 29: 0
-----------------------------
-----------------------------
	Lost due to PQ Size
-----------------------------
557315
-----------------------------
ST read accesses: 1588612
ST write accesses: 26212
PT read accesses: 38513617
PT write accesses: 2343003
FILTER read accesses: 8418270
FILTER write accesses: 2231266
GHR read accesses: 2176704
GHR write accesses: 349744
GHR counter read accesses: 32436584
GHR counter write accesses: 2506880
ST tag read accesses: 634788501
ST tag write accesses: 19558115

DRAM Statistics
 CHANNEL 0
 RQ ROW_BUFFER_HIT:     443850  ROW_BUFFER_MISS:     888539
 DBUS_CONGESTED:       1049
 WQ ROW_BUFFER_HIT:      96819  ROW_BUFFER_MISS:     307264  FULL:       4534

 AVG_CONGESTED_CYCLE: 4
 All warmup complete: 2
Channel 0 Bank busy for read cycles: 0
Channel 0 Bank busy for write cycles: 0
Channel 0
Rank 0
0banks busy for read cycles: 17840634
0banks busy for write cycles: 15308
1banks busy for read cycles: 7190959
1banks busy for write cycles: 2023404
2banks busy for read cycles: 6161875
2banks busy for write cycles: 1053758
3banks busy for read cycles: 4915471
3banks busy for write cycles: 726062
4banks busy for read cycles: 4004389
4banks busy for write cycles: 558490
5banks busy for read cycles: 3608869
5banks busy for write cycles: 478918
6banks busy for read cycles: 3585648
6banks busy for write cycles: 491702
7banks busy for read cycles: 3965751
7banks busy for write cycles: 1084541
8banks busy for read cycles: 5583667
8banks busy for write cycles: 6597829

CPU 0 Branch Prediction Accuracy: 94.351% MPKI: 2.76312 Average ROB Occupancy at Mispredict: 57.1199
Branch types
NOT_BRANCH: 47553969 95.1079%
BRANCH_DIRECT_JUMP: 3916 0.007832%
BRANCH_INDIRECT: 0 0%
BRANCH_CONDITIONAL: 2424082 4.84816%
BRANCH_DIRECT_CALL: 8847 0.017694%
BRANCH_INDIRECT_CALL: 0 0%
BRANCH_RETURN: 8845 0.01769%
BRANCH_OTHER: 0 0%

DRAM PAGES: 1048576
Allocated PAGES: 7750
