
*** ChampSim Multicore Out-of-Order Simulator ***

Warmup Instructions: 50000000
Simulation Instructions: 50000000
Number of CPUs: 1
LLC sets: 2048
LLC ways: 16
Off-chip DRAM Size: 4096 MB Channels: 1 Width: 64-bit Data Rate: 6400 MT/s
CPU 0 runs ../tracer/traces/605.mcf_s-1554B.champsimtrace.xz
.xz
CPU 0 Bimodal branch predictor
BTB has LRU replacement policy
ITLB has LRU replacement policy
DTLB has LRU replacement policy
STLB has LRU replacement policy
L1I has LRU replacement policy
L1D has LRU replacement policy
Initialize SRRIP state for L2C
Initialize SHIP state
Assign rand_sets[0]: 454  LLC: 2048
rand_sets[0]: 454
Assign rand_sets[1]: 1662  LLC: 2048
rand_sets[1]: 1662
Assign rand_sets[2]: 1921  LLC: 2048
rand_sets[2]: 1921
Assign rand_sets[3]: 1131  LLC: 2048
rand_sets[3]: 1131
Assign rand_sets[4]: 331  LLC: 2048
rand_sets[4]: 331
Assign rand_sets[5]: 1531  LLC: 2048
rand_sets[5]: 1531
Assign rand_sets[6]: 482  LLC: 2048
rand_sets[6]: 482
Assign rand_sets[7]: 1275  LLC: 2048
rand_sets[7]: 1275
Assign rand_sets[8]: 1876  LLC: 2048
rand_sets[8]: 1876
Assign rand_sets[9]: 2038  LLC: 2048
rand_sets[9]: 2038
Assign rand_sets[10]: 701  LLC: 2048
rand_sets[10]: 701
Assign rand_sets[11]: 479  LLC: 2048
rand_sets[11]: 479
Assign rand_sets[12]: 892  LLC: 2048
rand_sets[12]: 892
Assign rand_sets[13]: 1820  LLC: 2048
rand_sets[13]: 1820
Assign rand_sets[14]: 1505  LLC: 2048
rand_sets[14]: 1505
Assign rand_sets[15]: 1159  LLC: 2048
rand_sets[15]: 1159
Assign rand_sets[16]: 513  LLC: 2048
rand_sets[16]: 513
Assign rand_sets[17]: 703  LLC: 2048
rand_sets[17]: 703
Assign rand_sets[18]: 561  LLC: 2048
rand_sets[18]: 561
Assign rand_sets[19]: 990  LLC: 2048
rand_sets[19]: 990
Assign rand_sets[20]: 342  LLC: 2048
rand_sets[20]: 342
Assign rand_sets[21]: 882  LLC: 2048
rand_sets[21]: 882
Assign rand_sets[22]: 15  LLC: 2048
rand_sets[22]: 15
Assign rand_sets[23]: 71  LLC: 2048
rand_sets[23]: 71
Assign rand_sets[24]: 1127  LLC: 2048
rand_sets[24]: 1127
Assign rand_sets[25]: 1382  LLC: 2048
rand_sets[25]: 1382
Assign rand_sets[26]: 647  LLC: 2048
rand_sets[26]: 647
Assign rand_sets[27]: 857  LLC: 2048
rand_sets[27]: 857
Assign rand_sets[28]: 1450  LLC: 2048
rand_sets[28]: 1450
Assign rand_sets[29]: 1160  LLC: 2048
rand_sets[29]: 1160
Assign rand_sets[30]: 1852  LLC: 2048
rand_sets[30]: 1852
Assign rand_sets[31]: 1881  LLC: 2048
rand_sets[31]: 1881
Assign rand_sets[32]: 1770  LLC: 2048
rand_sets[32]: 1770
Assign rand_sets[33]: 1622  LLC: 2048
rand_sets[33]: 1622
Assign rand_sets[34]: 275  LLC: 2048
rand_sets[34]: 275
Assign rand_sets[35]: 635  LLC: 2048
rand_sets[35]: 635
Assign rand_sets[36]: 466  LLC: 2048
rand_sets[36]: 466
Assign rand_sets[37]: 1413  LLC: 2048
rand_sets[37]: 1413
Assign rand_sets[38]: 417  LLC: 2048
rand_sets[38]: 417
Assign rand_sets[39]: 472  LLC: 2048
rand_sets[39]: 472
Assign rand_sets[40]: 1340  LLC: 2048
rand_sets[40]: 1340
Assign rand_sets[41]: 852  LLC: 2048
rand_sets[41]: 852
Assign rand_sets[42]: 1365  LLC: 2048
rand_sets[42]: 1365
Assign rand_sets[43]: 47  LLC: 2048
rand_sets[43]: 47
Assign rand_sets[44]: 823  LLC: 2048
rand_sets[44]: 823
Assign rand_sets[45]: 686  LLC: 2048
rand_sets[45]: 686
Assign rand_sets[46]: 1637  LLC: 2048
rand_sets[46]: 1637
Assign rand_sets[47]: 1115  LLC: 2048
rand_sets[47]: 1115
Assign rand_sets[48]: 986  LLC: 2048
rand_sets[48]: 986
Assign rand_sets[49]: 258  LLC: 2048
rand_sets[49]: 258
Assign rand_sets[50]: 633  LLC: 2048
rand_sets[50]: 633
Assign rand_sets[51]: 920  LLC: 2048
rand_sets[51]: 920
Assign rand_sets[52]: 204  LLC: 2048
rand_sets[52]: 204
Assign rand_sets[53]: 227  LLC: 2048
rand_sets[53]: 227
Assign rand_sets[54]: 1818  LLC: 2048
rand_sets[54]: 1818
Assign rand_sets[55]: 886  LLC: 2048
rand_sets[55]: 886
Assign rand_sets[56]: 1422  LLC: 2048
rand_sets[56]: 1422
Assign rand_sets[57]: 607  LLC: 2048
rand_sets[57]: 607
Assign rand_sets[58]: 217  LLC: 2048
rand_sets[58]: 217
Assign rand_sets[59]: 1945  LLC: 2048
rand_sets[59]: 1945
Assign rand_sets[60]: 143  LLC: 2048
rand_sets[60]: 143
Assign rand_sets[61]: 1311  LLC: 2048
rand_sets[61]: 1311
Assign rand_sets[62]: 319  LLC: 2048
rand_sets[62]: 319
Assign rand_sets[63]: 1846  LLC: 2048
rand_sets[63]: 1846
Assign rand_sets[64]: 238  LLC: 2048
rand_sets[64]: 238
Assign rand_sets[65]: 67  LLC: 2048
rand_sets[65]: 67
Assign rand_sets[66]: 1912  LLC: 2048
rand_sets[66]: 1912
Assign rand_sets[67]: 1613  LLC: 2048
rand_sets[67]: 1613
Assign rand_sets[68]: 1293  LLC: 2048
rand_sets[68]: 1293
Assign rand_sets[69]: 1018  LLC: 2048
rand_sets[69]: 1018
Assign rand_sets[70]: 1982  LLC: 2048
rand_sets[70]: 1982
Assign rand_sets[71]: 1702  LLC: 2048
rand_sets[71]: 1702
Assign rand_sets[72]: 1498  LLC: 2048
rand_sets[72]: 1498
Assign rand_sets[73]: 228  LLC: 2048
rand_sets[73]: 228
Assign rand_sets[74]: 1414  LLC: 2048
rand_sets[74]: 1414
Assign rand_sets[75]: 1166  LLC: 2048
rand_sets[75]: 1166
Assign rand_sets[76]: 732  LLC: 2048
rand_sets[76]: 732
Assign rand_sets[77]: 297  LLC: 2048
rand_sets[77]: 297
Assign rand_sets[78]: 1133  LLC: 2048
rand_sets[78]: 1133
Assign rand_sets[79]: 846  LLC: 2048
rand_sets[79]: 846
Assign rand_sets[80]: 767  LLC: 2048
rand_sets[80]: 767
Assign rand_sets[81]: 1878  LLC: 2048
rand_sets[81]: 1878
Assign rand_sets[82]: 993  LLC: 2048
rand_sets[82]: 993
Assign rand_sets[83]: 1392  LLC: 2048
rand_sets[83]: 1392
Assign rand_sets[84]: 1568  LLC: 2048
rand_sets[84]: 1568
Assign rand_sets[85]: 1787  LLC: 2048
rand_sets[85]: 1787
Assign rand_sets[86]: 399  LLC: 2048
rand_sets[86]: 399
Assign rand_sets[87]: 1201  LLC: 2048
rand_sets[87]: 1201
Assign rand_sets[88]: 856  LLC: 2048
rand_sets[88]: 856
Assign rand_sets[89]: 773  LLC: 2048
rand_sets[89]: 773
Assign rand_sets[90]: 1680  LLC: 2048
rand_sets[90]: 1680
Assign rand_sets[91]: 1477  LLC: 2048
rand_sets[91]: 1477
Assign rand_sets[92]: 9  LLC: 2048
rand_sets[92]: 9
Assign rand_sets[93]: 1500  LLC: 2048
rand_sets[93]: 1500
Assign rand_sets[94]: 851  LLC: 2048
rand_sets[94]: 851
Assign rand_sets[95]: 973  LLC: 2048
rand_sets[95]: 973
Assign rand_sets[96]: 938  LLC: 2048
rand_sets[96]: 938
Assign rand_sets[97]: 1851  LLC: 2048
rand_sets[97]: 1851
Assign rand_sets[98]: 1608  LLC: 2048
rand_sets[98]: 1608
Assign rand_sets[99]: 1945  LLC: 2048
Assign rand_sets[99]: 1106  LLC: 2048
rand_sets[99]: 1106
Assign rand_sets[100]: 979  LLC: 2048
rand_sets[100]: 979
Assign rand_sets[101]: 338  LLC: 2048
rand_sets[101]: 338
Assign rand_sets[102]: 1693  LLC: 2048
rand_sets[102]: 1693
Assign rand_sets[103]: 6  LLC: 2048
rand_sets[103]: 6
Assign rand_sets[104]: 671  LLC: 2048
rand_sets[104]: 671
Assign rand_sets[105]: 490  LLC: 2048
rand_sets[105]: 490
Assign rand_sets[106]: 1461  LLC: 2048
rand_sets[106]: 1461
Assign rand_sets[107]: 1730  LLC: 2048
rand_sets[107]: 1730
Assign rand_sets[108]: 1030  LLC: 2048
rand_sets[108]: 1030
Assign rand_sets[109]: 19  LLC: 2048
rand_sets[109]: 19
Assign rand_sets[110]: 920  LLC: 2048
Assign rand_sets[110]: 329  LLC: 2048
rand_sets[110]: 329
Assign rand_sets[111]: 1714  LLC: 2048
rand_sets[111]: 1714
Assign rand_sets[112]: 1  LLC: 2048
rand_sets[112]: 1
Assign rand_sets[113]: 1822  LLC: 2048
rand_sets[113]: 1822
Assign rand_sets[114]: 172  LLC: 2048
rand_sets[114]: 172
Assign rand_sets[115]: 1586  LLC: 2048
rand_sets[115]: 1586
Assign rand_sets[116]: 648  LLC: 2048
rand_sets[116]: 648
Assign rand_sets[117]: 1329  LLC: 2048
rand_sets[117]: 1329
Assign rand_sets[118]: 668  LLC: 2048
rand_sets[118]: 668
Assign rand_sets[119]: 1874  LLC: 2048
rand_sets[119]: 1874
Assign rand_sets[120]: 70  LLC: 2048
rand_sets[120]: 70
Assign rand_sets[121]: 661  LLC: 2048
rand_sets[121]: 661
Assign rand_sets[122]: 1649  LLC: 2048
rand_sets[122]: 1649
Assign rand_sets[123]: 1590  LLC: 2048
rand_sets[123]: 1590
Assign rand_sets[124]: 911  LLC: 2048
rand_sets[124]: 911
Assign rand_sets[125]: 1367  LLC: 2048
rand_sets[125]: 1367
Assign rand_sets[126]: 1782  LLC: 2048
rand_sets[126]: 1782
Assign rand_sets[127]: 569  LLC: 2048
rand_sets[127]: 569
Assign rand_sets[128]: 1309  LLC: 2048
rand_sets[128]: 1309
Assign rand_sets[129]: 534  LLC: 2048
rand_sets[129]: 534
Assign rand_sets[130]: 1274  LLC: 2048
rand_sets[130]: 1274
Assign rand_sets[131]: 904  LLC: 2048
rand_sets[131]: 904
Assign rand_sets[132]: 1908  LLC: 2048
rand_sets[132]: 1908
Assign rand_sets[133]: 245  LLC: 2048
rand_sets[133]: 245
Assign rand_sets[134]: 1688  LLC: 2048
rand_sets[134]: 1688
Assign rand_sets[135]: 1660  LLC: 2048
rand_sets[135]: 1660
Assign rand_sets[136]: 1303  LLC: 2048
rand_sets[136]: 1303
Assign rand_sets[137]: 1628  LLC: 2048
rand_sets[137]: 1628
Assign rand_sets[138]: 1857  LLC: 2048
rand_sets[138]: 1857
Assign rand_sets[139]: 187  LLC: 2048
rand_sets[139]: 187
Assign rand_sets[140]: 1389  LLC: 2048
rand_sets[140]: 1389
Assign rand_sets[141]: 881  LLC: 2048
rand_sets[141]: 881
Assign rand_sets[142]: 1166  LLC: 2048
Assign rand_sets[142]: 1039  LLC: 2048
rand_sets[142]: 1039
Assign rand_sets[143]: 1136  LLC: 2048
rand_sets[143]: 1136
Assign rand_sets[144]: 601  LLC: 2048
rand_sets[144]: 601
Assign rand_sets[145]: 967  LLC: 2048
rand_sets[145]: 967
Assign rand_sets[146]: 769  LLC: 2048
rand_sets[146]: 769
Assign rand_sets[147]: 283  LLC: 2048
rand_sets[147]: 283
Assign rand_sets[148]: 559  LLC: 2048
rand_sets[148]: 559
Assign rand_sets[149]: 1075  LLC: 2048
rand_sets[149]: 1075
Assign rand_sets[150]: 829  LLC: 2048
rand_sets[150]: 829
Assign rand_sets[151]: 1681  LLC: 2048
rand_sets[151]: 1681
Assign rand_sets[152]: 1728  LLC: 2048
rand_sets[152]: 1728
Assign rand_sets[153]: 541  LLC: 2048
rand_sets[153]: 541
Assign rand_sets[154]: 421  LLC: 2048
rand_sets[154]: 421
Assign rand_sets[155]: 1037  LLC: 2048
rand_sets[155]: 1037
Assign rand_sets[156]: 13  LLC: 2048
rand_sets[156]: 13
Assign rand_sets[157]: 1707  LLC: 2048
rand_sets[157]: 1707
Assign rand_sets[158]: 1075  LLC: 2048
Assign rand_sets[158]: 1933  LLC: 2048
rand_sets[158]: 1933
Assign rand_sets[159]: 1406  LLC: 2048
rand_sets[159]: 1406
Assign rand_sets[160]: 94  LLC: 2048
rand_sets[160]: 94
Assign rand_sets[161]: 1423  LLC: 2048
rand_sets[161]: 1423
Assign rand_sets[162]: 1854  LLC: 2048
rand_sets[162]: 1854
Assign rand_sets[163]: 230  LLC: 2048
rand_sets[163]: 230
Assign rand_sets[164]: 104  LLC: 2048
rand_sets[164]: 104
Assign rand_sets[165]: 1652  LLC: 2048
rand_sets[165]: 1652
Assign rand_sets[166]: 1446  LLC: 2048
rand_sets[166]: 1446
Assign rand_sets[167]: 1338  LLC: 2048
rand_sets[167]: 1338
Assign rand_sets[168]: 177  LLC: 2048
rand_sets[168]: 177
Assign rand_sets[169]: 195  LLC: 2048
rand_sets[169]: 195
Assign rand_sets[170]: 1171  LLC: 2048
rand_sets[170]: 1171
Assign rand_sets[171]: 1297  LLC: 2048
rand_sets[171]: 1297
Assign rand_sets[172]: 1704  LLC: 2048
rand_sets[172]: 1704
Assign rand_sets[173]: 100  LLC: 2048
rand_sets[173]: 100
Assign rand_sets[174]: 711  LLC: 2048
rand_sets[174]: 711
Assign rand_sets[175]: 1243  LLC: 2048
rand_sets[175]: 1243
Assign rand_sets[176]: 1738  LLC: 2048
rand_sets[176]: 1738
Assign rand_sets[177]: 1504  LLC: 2048
rand_sets[177]: 1504
Assign rand_sets[178]: 96  LLC: 2048
rand_sets[178]: 96
Assign rand_sets[179]: 1249  LLC: 2048
rand_sets[179]: 1249
Assign rand_sets[180]: 1267  LLC: 2048
rand_sets[180]: 1267
Assign rand_sets[181]: 1727  LLC: 2048
rand_sets[181]: 1727
Assign rand_sets[182]: 1545  LLC: 2048
rand_sets[182]: 1545
Assign rand_sets[183]: 1792  LLC: 2048
rand_sets[183]: 1792
Assign rand_sets[184]: 1383  LLC: 2048
rand_sets[184]: 1383
Assign rand_sets[185]: 1954  LLC: 2048
rand_sets[185]: 1954
Assign rand_sets[186]: 739  LLC: 2048
rand_sets[186]: 739
Assign rand_sets[187]: 1061  LLC: 2048
rand_sets[187]: 1061
Assign rand_sets[188]: 672  LLC: 2048
rand_sets[188]: 672
Assign rand_sets[189]: 1057  LLC: 2048
rand_sets[189]: 1057
Assign rand_sets[190]: 1329  LLC: 2048
Assign rand_sets[190]: 1415  LLC: 2048
rand_sets[190]: 1415
Assign rand_sets[191]: 981  LLC: 2048
rand_sets[191]: 981
Assign rand_sets[192]: 98  LLC: 2048
rand_sets[192]: 98
Assign rand_sets[193]: 453  LLC: 2048
rand_sets[193]: 453
Assign rand_sets[194]: 1448  LLC: 2048
rand_sets[194]: 1448
Assign rand_sets[195]: 79  LLC: 2048
rand_sets[195]: 79
Assign rand_sets[196]: 126  LLC: 2048
rand_sets[196]: 126
Assign rand_sets[197]: 1582  LLC: 2048
rand_sets[197]: 1582
Assign rand_sets[198]: 1289  LLC: 2048
rand_sets[198]: 1289
Assign rand_sets[199]: 875  LLC: 2048
rand_sets[199]: 875
Assign rand_sets[200]: 404  LLC: 2048
rand_sets[200]: 404
Assign rand_sets[201]: 415  LLC: 2048
rand_sets[201]: 415
Assign rand_sets[202]: 1712  LLC: 2048
rand_sets[202]: 1712
Assign rand_sets[203]: 1389  LLC: 2048
Assign rand_sets[203]: 169  LLC: 2048
rand_sets[203]: 169
Assign rand_sets[204]: 158  LLC: 2048
rand_sets[204]: 158
Assign rand_sets[205]: 90  LLC: 2048
rand_sets[205]: 90
Assign rand_sets[206]: 1291  LLC: 2048
rand_sets[206]: 1291
Assign rand_sets[207]: 838  LLC: 2048
rand_sets[207]: 838
Assign rand_sets[208]: 1904  LLC: 2048
rand_sets[208]: 1904
Assign rand_sets[209]: 640  LLC: 2048
rand_sets[209]: 640
Assign rand_sets[210]: 1462  LLC: 2048
rand_sets[210]: 1462
Assign rand_sets[211]: 1487  LLC: 2048
rand_sets[211]: 1487
Assign rand_sets[212]: 1863  LLC: 2048
rand_sets[212]: 1863
Assign rand_sets[213]: 1036  LLC: 2048
rand_sets[213]: 1036
Assign rand_sets[214]: 1702  LLC: 2048
Assign rand_sets[214]: 933  LLC: 2048
rand_sets[214]: 933
Assign rand_sets[215]: 554  LLC: 2048
rand_sets[215]: 554
Assign rand_sets[216]: 1496  LLC: 2048
rand_sets[216]: 1496
Assign rand_sets[217]: 1708  LLC: 2048
rand_sets[217]: 1708
Assign rand_sets[218]: 1275  LLC: 2048
Assign rand_sets[218]: 416  LLC: 2048
rand_sets[218]: 416
Assign rand_sets[219]: 491  LLC: 2048
rand_sets[219]: 491
Assign rand_sets[220]: 183  LLC: 2048
rand_sets[220]: 183
Assign rand_sets[221]: 1657  LLC: 2048
rand_sets[221]: 1657
Assign rand_sets[222]: 1060  LLC: 2048
rand_sets[222]: 1060
Assign rand_sets[223]: 626  LLC: 2048
rand_sets[223]: 626
Assign rand_sets[224]: 1315  LLC: 2048
rand_sets[224]: 1315
Assign rand_sets[225]: 1682  LLC: 2048
rand_sets[225]: 1682
Assign rand_sets[226]: 1352  LLC: 2048
rand_sets[226]: 1352
Assign rand_sets[227]: 1152  LLC: 2048
rand_sets[227]: 1152
Assign rand_sets[228]: 965  LLC: 2048
rand_sets[228]: 965
Assign rand_sets[229]: 1190  LLC: 2048
rand_sets[229]: 1190
Assign rand_sets[230]: 1191  LLC: 2048
rand_sets[230]: 1191
Assign rand_sets[231]: 645  LLC: 2048
rand_sets[231]: 645
Assign rand_sets[232]: 695  LLC: 2048
rand_sets[232]: 695
Assign rand_sets[233]: 1495  LLC: 2048
rand_sets[233]: 1495
Assign rand_sets[234]: 1932  LLC: 2048
rand_sets[234]: 1932
Assign rand_sets[235]: 656  LLC: 2048
rand_sets[235]: 656
Assign rand_sets[236]: 1508  LLC: 2048
rand_sets[236]: 1508
Assign rand_sets[237]: 939  LLC: 2048
rand_sets[237]: 939
Assign rand_sets[238]: 355  LLC: 2048
rand_sets[238]: 355
Assign rand_sets[239]: 1092  LLC: 2048
rand_sets[239]: 1092
Assign rand_sets[240]: 850  LLC: 2048
rand_sets[240]: 850
Assign rand_sets[241]: 102  LLC: 2048
rand_sets[241]: 102
Assign rand_sets[242]: 1763  LLC: 2048
rand_sets[242]: 1763
Assign rand_sets[243]: 668  LLC: 2048
Assign rand_sets[243]: 51  LLC: 2048
rand_sets[243]: 51
Assign rand_sets[244]: 1317  LLC: 2048
rand_sets[244]: 1317
Assign rand_sets[245]: 2041  LLC: 2048
rand_sets[245]: 2041
Assign rand_sets[246]: 1374  LLC: 2048
rand_sets[246]: 1374
Assign rand_sets[247]: 682  LLC: 2048
rand_sets[247]: 682
Assign rand_sets[248]: 1466  LLC: 2048
rand_sets[248]: 1466
Assign rand_sets[249]: 1139  LLC: 2048
rand_sets[249]: 1139
Assign rand_sets[250]: 1632  LLC: 2048
rand_sets[250]: 1632
Assign rand_sets[251]: 1117  LLC: 2048
rand_sets[251]: 1117
Assign rand_sets[252]: 1611  LLC: 2048
rand_sets[252]: 1611
Assign rand_sets[253]: 1905  LLC: 2048
rand_sets[253]: 1905
Assign rand_sets[254]: 1662  LLC: 2048
Assign rand_sets[254]: 446  LLC: 2048
rand_sets[254]: 446
Assign rand_sets[255]: 1705  LLC: 2048
rand_sets[255]: 1705
Heartbeat CPU 0 instructions: 10000001 cycles: 3505241 heartbeat IPC: 2.85287 cumulative IPC: 2.85287 (Simulation time: 0 hr 3 min 43 sec) 
Heartbeat CPU 0 instructions: 20000000 cycles: 7033446 heartbeat IPC: 2.8343 cumulative IPC: 2.84356 (Simulation time: 0 hr 7 min 27 sec) 
Heartbeat CPU 0 instructions: 30000001 cycles: 10570026 heartbeat IPC: 2.82759 cumulative IPC: 2.83821 (Simulation time: 0 hr 11 min 12 sec) 
Heartbeat CPU 0 instructions: 40000000 cycles: 14093236 heartbeat IPC: 2.83832 cumulative IPC: 2.83824 (Simulation time: 0 hr 14 min 57 sec) 
Heartbeat CPU 0 instructions: 50000001 cycles: 17620645 heartbeat IPC: 2.83494 cumulative IPC: 2.83758 (Simulation time: 0 hr 18 min 42 sec) 

Warmup complete CPU 0 instructions: 50000001 cycles: 17620645 (Simulation time: 0 hr 18 min 42 sec) 

Heartbeat CPU 0 instructions: 60000001 cycles: 43494177 heartbeat IPC: 0.386495 cumulative IPC: 0.386495 (Simulation time: 0 hr 22 min 56 sec) 
Heartbeat CPU 0 instructions: 70000000 cycles: 69654721 heartbeat IPC: 0.382255 cumulative IPC: 0.384364 (Simulation time: 0 hr 26 min 54 sec) 
Heartbeat CPU 0 instructions: 80000001 cycles: 96433286 heartbeat IPC: 0.373433 cumulative IPC: 0.38065 (Simulation time: 0 hr 30 min 55 sec) 
Heartbeat CPU 0 instructions: 90000002 cycles: 122149704 heartbeat IPC: 0.388857 cumulative IPC: 0.382669 (Simulation time: 0 hr 34 min 54 sec) 
Heartbeat CPU 0 instructions: 100000001 cycles: 147630293 heartbeat IPC: 0.392456 cumulative IPC: 0.384587 (Simulation time: 0 hr 38 min 51 sec) 
Finished CPU 0 instructions: 50000000 cycles: 130009648 cumulative IPC: 0.384587 (Simulation time: 0 hr 38 min 51 sec) 

ChampSim completed all CPUs

Region of Interest Statistics

CPU 0 cumulative IPC: 0.384587 instructions: 50000000 cycles: 130009648
ITLB TOTAL     ACCESS:    9929871  HIT:    9929871  MISS:          0  HIT %:        100  MISS %:          0   MPKI: 0
ITLB LOAD TRANSLATION ACCESS:    9929871  HIT:    9929871  MISS:          0  HIT %:        100  MISS %:          0   MPKI: 0
ITLB PREFETCH  REQUESTED:          0  ISSUED:          0  USEFUL:          0  USELESS:          0
ITLB USEFUL LOAD PREFETCHES:          0 PREFETCH ISSUED TO LOWER LEVEL:          0  ACCURACY: -nan
ITLB TIMELY PREFETCHES:          0 LATE PREFETCHES: 0 DROPPED PREFETCHES: 0
ITLB PREFETCHES SAME FILL-ORIGIN LEVEL: 0 DIFFERENT FILL-ORIGIN LEVEL: 0
ITLB AVERAGE MISS LATENCY: -nan cycles
ITLB RQ	ACCESS:   12174345	FORWARD:          0	MERGED:    2244474	TO_CACHE:    9929871

DTLB TOTAL     ACCESS:   15726072  HIT:   15530615  MISS:     195457  HIT %:    98.7571  MISS %:    1.24289   MPKI: 3.90914
DTLB LOAD TRANSLATION ACCESS:   15726072  HIT:   15530615  MISS:     195457  HIT %:    98.7571  MISS %:    1.24289   MPKI: 3.90914
DTLB PREFETCH  REQUESTED:          0  ISSUED:          0  USEFUL:          0  USELESS:          0
DTLB USEFUL LOAD PREFETCHES:          0 PREFETCH ISSUED TO LOWER LEVEL:          0  ACCURACY: -nan
DTLB TIMELY PREFETCHES:          0 LATE PREFETCHES: 0 DROPPED PREFETCHES: 0
DTLB PREFETCHES SAME FILL-ORIGIN LEVEL: 0 DIFFERENT FILL-ORIGIN LEVEL: 0
DTLB AVERAGE MISS LATENCY: 13.15 cycles
DTLB RQ	ACCESS:   19470770	FORWARD:          0	MERGED:    3739826	TO_CACHE:   15730944

STLB TOTAL     ACCESS:    4928415  HIT:    4923927  MISS:       4488  HIT %:    99.9089  MISS %:  0.0910638   MPKI: 0.08976
STLB LOAD TRANSLATION ACCESS:     195457  HIT:     190971  MISS:       4486  HIT %:    97.7049  MISS %:    2.29513   MPKI: 0.08972
STLB TRANSLATION FROM L1D PREFETCHER ACCESS:    4732958  HIT:    4732956  MISS:          2  HIT %:        100  MISS %: 4.22569e-05   MPKI: 4e-05
STLB PREFETCH  REQUESTED:          0  ISSUED:          0  USEFUL:          1  USELESS:          1
STLB USEFUL LOAD PREFETCHES:          1 PREFETCH ISSUED TO LOWER LEVEL:          0  ACCURACY: inf
STLB TIMELY PREFETCHES:          1 LATE PREFETCHES: 0 DROPPED PREFETCHES: 0
STLB PREFETCHES SAME FILL-ORIGIN LEVEL: 0 DIFFERENT FILL-ORIGIN LEVEL: 0
STLB AVERAGE MISS LATENCY: 180.139 cycles
STLB RQ	ACCESS:   11980679	FORWARD:          0	MERGED:    7052265	TO_CACHE:    4928414

STLB Hit, L1D data hit: 0
STLB Hit, L2C data hit: 0
STLB Hit, LLC data hit: 0
STLB Hit, LLC data miss: 0
STLB STLB hints to L2: 0
L1D TOTAL     ACCESS:   25371157  HIT:   16115762  MISS:    9255395  HIT %:      63.52  MISS %:      36.48   MPKI: 185.108
L1D LOAD      ACCESS:   16018434  HIT:   13491032  MISS:    2527402  HIT %:    84.2219  MISS %:    15.7781   MPKI: 50.548
L1D RFO       ACCESS:    2775150  HIT:    2621229  MISS:     153921  HIT %:    94.4536  MISS %:     5.5464   MPKI: 3.07842
L1D PREFETCH  ACCESS:    6577573  HIT:       3501  MISS:    6574072  HIT %:  0.0532263  MISS %:    99.9468   MPKI: 131.481
AGUS PREFETCH L1 MISS: 0
L1D PREFETCH  REQUESTED:   23684665  ISSUED:   23684665  USEFUL:    4949205  USELESS:    1624980
L1D USEFUL LOAD PREFETCHES:    4949205 PREFETCH ISSUED TO LOWER LEVEL:   11640763  ACCURACY: 42.5162
L1D TIMELY PREFETCHES:    4949205 LATE PREFETCHES: 682988 DROPPED PREFETCHES: 0
L1D PREFETCHES SAME FILL-ORIGIN LEVEL: 7257377 DIFFERENT FILL-ORIGIN LEVEL: 4383386
L1D AVERAGE MISS LATENCY: 6.10422e+06 cycles
L1D RQ	ACCESS:   20563839	FORWARD:          0	MERGED:    4247866	TO_CACHE:   16285094
L1D WQ	ACCESS:    3711168	FORWARD:      30879	MERGED:     525492	TO_CACHE:    3185676
L1D PQ	ACCESS:   11899443	FORWARD:          0	MERGED:     114221	TO_CACHE:   11785222

L1D UNIQUE REGIONS ACCESSED: 0
L1D REGIONS CONFLICTS: 0
L1D Cross Page Prefetch Requests: 0
L1D Same Page Prefetch Requests: 22579984
L1D ROI Sum of L1D PQ occupancy: 156284981
L1D PREFETCHES PUSHED FROM L2C: 0
L1I TOTAL     ACCESS:   12174343  HIT:   12174343  MISS:          0  HIT %:        100  MISS %:          0   MPKI: 0
L1I LOAD      ACCESS:   12174343  HIT:   12174343  MISS:          0  HIT %:        100  MISS %:          0   MPKI: 0
L1I PREFETCH  REQUESTED:          0  ISSUED:          0  USEFUL:          0  USELESS:          0
L1I USEFUL LOAD PREFETCHES:          0 PREFETCH ISSUED TO LOWER LEVEL:          0  ACCURACY: -nan
L1I TIMELY PREFETCHES:          0 LATE PREFETCHES: 0 DROPPED PREFETCHES: 0
L1I PREFETCHES SAME FILL-ORIGIN LEVEL: 0 DIFFERENT FILL-ORIGIN LEVEL: 0
L1I AVERAGE MISS LATENCY: -nan cycles
L1I RQ	ACCESS:   16495046	FORWARD:          0	MERGED:    4320701	TO_CACHE:   12174345

BTB TOTAL     ACCESS:    8795729  HIT:    8795697  MISS:         32  HIT %:    99.9996  MISS %: 0.000363813   MPKI: 0.00064
BTB BRANCH_DIRECT_JUMP	ACCESS:    2039126  HIT:    2039120  MISS:          6
BTB BRANCH_INDIRECT	ACCESS:          0  HIT:          0  MISS:          0
BTB BRANCH_CONDITIONAL	ACCESS:    6755819  HIT:    6755797  MISS:         22
BTB BRANCH_DIRECT_CALL	ACCESS:        392  HIT:        390  MISS:          2
BTB BRANCH_INDIRECT_CALL	ACCESS:          0  HIT:          0  MISS:          0
BTB BRANCH_RETURN	ACCESS:        392  HIT:        390  MISS:          2
BTB BRANCH_OTHER ACCESS:          0  HIT:          0  MISS:          0

L2C TOTAL     ACCESS:   13176048  HIT:    3482443  MISS:    9693605  HIT %:    26.4301  MISS %:    73.5699   MPKI: 193.872
L2C LOAD      ACCESS:    1844414  HIT:     252409  MISS:    1592005  HIT %:    13.6851  MISS %:    86.3149   MPKI: 31.8401
L2C DATA LOAD MPKI: 31.8401
L2C INSTRUCTION LOAD MPKI: 0
L2C RFO       ACCESS:     153604  HIT:        295  MISS:     153309  HIT %:   0.192052  MISS %:    99.8079   MPKI: 3.06618
L2C PREFETCH  ACCESS:   10981440  HIT:    3035718  MISS:    7945722  HIT %:    27.6441  MISS %:    72.3559   MPKI: 158.914
AGUS PREFETCH L1 MISS: 0
L2C DATA PREFETCH MPKI: 158.914
L2C INSTRUCTION PREFETCH MPKI: 0
L2C WRITEBACK ACCESS:     192096  HIT:     190685  MISS:       1411  HIT %:    99.2655  MISS %:   0.734529   MPKI: 0.02822
L2C LOAD TRANSLATION ACCESS:       4490  HIT:       3336  MISS:       1154  HIT %:    74.2984  MISS %:    25.7016   MPKI: 0.02308
L2C TRANSLATION FROM L1D PREFETCHER ACCESS:          4  HIT:          0  MISS:          4  HIT %:          0  MISS %:        100   MPKI: 8e-05
L2C PREFETCH  REQUESTED:          0  ISSUED:          0  USEFUL:     251617  USELESS:    7692847
L2C USEFUL LOAD PREFETCHES:     251617 PREFETCH ISSUED TO LOWER LEVEL:    7982175  ACCURACY: 3.15224
L2C TIMELY PREFETCHES:     251617 LATE PREFETCHES: 36453 DROPPED PREFETCHES: 0
L2C PREFETCHES SAME FILL-ORIGIN LEVEL: 4382365 DIFFERENT FILL-ORIGIN LEVEL: 0
L2C AVERAGE MISS LATENCY: 90.0935 cycles
L2C RQ	ACCESS:    2002512	FORWARD:          0	MERGED:          0	TO_CACHE:    2002512
L2C WQ	ACCESS:     192096	FORWARD:          0	MERGED:          0	TO_CACHE:     192096
L2C PQ	ACCESS:   11640763	FORWARD:          0	MERGED:        939	TO_CACHE:   11639824

L2C Instructions Evicting Data 0
L2C Translations Evicting Data 1157
L2C Data Evicting Data 9689874
L2C Instructions Evicting Instructions 0
L2C Translations Evicting Instructions 0
L2C Data Evicting Instructions 0
L2C Instructions Evicting Translations 0
L2C Translations Evicting Translations 1
L2C Data Evicting Translations 1162
L2C Dense regions hint from L2: 0
PSCL5 TOTAL     ACCESS:       4488  HIT:       4488  MISS:          0  HIT %:        100  MISS %:          0   MPKI: 0
PSCL5 LOAD TRANSLATION ACCESS:       4486  HIT:       4486  MISS:          0  HIT %:        100  MISS %:          0   MPKI: 0
PSCL5 TRANSLATION FROM L1D PREFETCHER ACCESS:          2  HIT:          2  MISS:          0  HIT %:        100  MISS %:          0   MPKI: 0
PSCL5 PREFETCH  REQUESTED:          0  ISSUED:          0  USEFUL:          0  USELESS:          0
PSCL5 USEFUL LOAD PREFETCHES:          0 PREFETCH ISSUED TO LOWER LEVEL:          0  ACCURACY: -nan
PSCL5 TIMELY PREFETCHES:          0 LATE PREFETCHES: 0 DROPPED PREFETCHES: 0
PSCL5 PREFETCHES SAME FILL-ORIGIN LEVEL: 0 DIFFERENT FILL-ORIGIN LEVEL: 0

PSCL4 TOTAL     ACCESS:       4488  HIT:       4488  MISS:          0  HIT %:        100  MISS %:          0   MPKI: 0
PSCL4 LOAD TRANSLATION ACCESS:       4486  HIT:       4486  MISS:          0  HIT %:        100  MISS %:          0   MPKI: 0
PSCL4 TRANSLATION FROM L1D PREFETCHER ACCESS:          2  HIT:          2  MISS:          0  HIT %:        100  MISS %:          0   MPKI: 0
PSCL4 PREFETCH  REQUESTED:          0  ISSUED:          0  USEFUL:          0  USELESS:          0
PSCL4 USEFUL LOAD PREFETCHES:          0 PREFETCH ISSUED TO LOWER LEVEL:          0  ACCURACY: -nan
PSCL4 TIMELY PREFETCHES:          0 LATE PREFETCHES: 0 DROPPED PREFETCHES: 0
PSCL4 PREFETCHES SAME FILL-ORIGIN LEVEL: 0 DIFFERENT FILL-ORIGIN LEVEL: 0

PSCL3 TOTAL     ACCESS:       4488  HIT:       4488  MISS:          0  HIT %:        100  MISS %:          0   MPKI: 0
PSCL3 LOAD TRANSLATION ACCESS:       4486  HIT:       4486  MISS:          0  HIT %:        100  MISS %:          0   MPKI: 0
PSCL3 TRANSLATION FROM L1D PREFETCHER ACCESS:          2  HIT:          2  MISS:          0  HIT %:        100  MISS %:          0   MPKI: 0
PSCL3 PREFETCH  REQUESTED:          0  ISSUED:          0  USEFUL:          0  USELESS:          0
PSCL3 USEFUL LOAD PREFETCHES:          0 PREFETCH ISSUED TO LOWER LEVEL:          0  ACCURACY: -nan
PSCL3 TIMELY PREFETCHES:          0 LATE PREFETCHES: 0 DROPPED PREFETCHES: 0
PSCL3 PREFETCHES SAME FILL-ORIGIN LEVEL: 0 DIFFERENT FILL-ORIGIN LEVEL: 0

PSCL2 TOTAL     ACCESS:       4488  HIT:       4473  MISS:         15  HIT %:    99.6658  MISS %:   0.334225   MPKI: 0.0003
PSCL2 LOAD TRANSLATION ACCESS:       4488  HIT:       4473  MISS:         15  HIT %:    99.6658  MISS %:   0.334225   MPKI: 0.0003
PSCL2 PREFETCH  REQUESTED:          0  ISSUED:          0  USEFUL:          0  USELESS:          0
PSCL2 USEFUL LOAD PREFETCHES:          0 PREFETCH ISSUED TO LOWER LEVEL:          0  ACCURACY: -nan
PSCL2 TIMELY PREFETCHES:          0 LATE PREFETCHES: 0 DROPPED PREFETCHES: 0
PSCL2 PREFETCHES SAME FILL-ORIGIN LEVEL: 0 DIFFERENT FILL-ORIGIN LEVEL: 0

LLC TOTAL     ACCESS:    9885026  HIT:    5444476  MISS:    4440550  HIT %:     55.078  MISS %:     44.922   MPKI: 88.811
LLC LOAD      ACCESS:    1555556  HIT:    1050374  MISS:     505182  HIT %:     67.524  MISS %:     32.476   MPKI: 10.1036
LLC RFO       ACCESS:     153305  HIT:        812  MISS:     152493  HIT %:   0.529663  MISS %:    99.4703   MPKI: 3.04986
LLC PREFETCH  ACCESS:    7982175  HIT:    4383822  MISS:    3598353  HIT %:    54.9201  MISS %:    45.0799   MPKI: 71.9671
AGUS PREFETCH L1 MISS: 0
LLC WRITEBACK ACCESS:     192832  HIT:       9379  MISS:     183453  HIT %:    4.86382  MISS %:    95.1362   MPKI: 3.66906
LLC LOAD TRANSLATION ACCESS:       1154  HIT:         89  MISS:       1065  HIT %:    7.71231  MISS %:    92.2877   MPKI: 0.0213
LLC TRANSLATION FROM L1D PREFETCHER ACCESS:          4  HIT:          0  MISS:          4  HIT %:          0  MISS %:        100   MPKI: 8e-05
LLC PREFETCH  REQUESTED:          0  ISSUED:          0  USEFUL:       1484  USELESS:    3598653
LLC USEFUL LOAD PREFETCHES:       1484 PREFETCH ISSUED TO LOWER LEVEL:    3598353  ACCURACY: 0.0412411
LLC TIMELY PREFETCHES:       1484 LATE PREFETCHES: 0 DROPPED PREFETCHES: 0
LLC PREFETCHES SAME FILL-ORIGIN LEVEL: 0 DIFFERENT FILL-ORIGIN LEVEL: 0
LLC AVERAGE MISS LATENCY: 131.574 cycles
LLC RQ	ACCESS:    1710019	FORWARD:          0	MERGED:          0	TO_CACHE:    1710019
LLC WQ	ACCESS:     192832	FORWARD:          0	MERGED:          0	TO_CACHE:     192832
LLC PQ	ACCESS:    7982175	FORWARD:          0	MERGED:          0	TO_CACHE:    7982175

LLC Dense regions hint to LLC: 0

RAW hits: 2011817
Loads Generated: 22575657
Loads sent to L1D: 20563839
Stores Generated: 3711164
Stores sent to L1D: 3711168
Major fault: 0 Minor fault: 9879
Allocated PAGES: 9879
=== CPU 0 L1D Prefetcher Statistics ===
[MLOP] History of tracked zone:
IIIIIIIIIIIIIIIIIIIIIIIIIIIIIIIIIIIIIIIIIIIIIIIIIIIIIIIIIIIIIIII
IIIIIIIIIIIIIIIIIIIIIIIIIIIIIIIIIIIIIIIIIIIIII2IIIIIIIII2II1IIIA
IIIIIIIIIIIIIIIIIIIIIIIIIIIIIIIIIIIIIIIIIIIII22IIIIIIII22I11IIAA
IIIIIIIIIIIIIIIIIIIIIIIIIIIIIIIIIIIIIIIIIIII222IIIIIII222111IAAA
IIIIIIIIIIIIIIIIIIIIIIIIIIIIIIIIIIIIIIIIIII2222IIIIII2221111AAAA
IIIIIIIIIIIIIIIIIIIIIIIIIIIIIIIIIIIIIIIIII22222IIIII2221111AAAAA
IIIIIIIIIIIIIIIIIIIIIIIIIIIIIIIIIIIIIIIII222222IIII2221111AAAAAA
IIIIIIIIIIIIIIIIIIIIIIIIIIIIIIIIIIIIIIIII222222IIII222111AAAAAAA
IIIIIIIIIIIIIIIIIIIIIIIIIIIIIIIIIIIIIIII2222222III2221111AAAAAAA
IIIIIIIIIIIIIIIIIIIIIIIIIIIIIIIIIIIIIIII2222222III222111AAAAAAAA
IIIIIIIIIIIIIIIIIIIIIIIIIIIIIIIIIIIIIIII2222222II2221111AAAAAAAA
IIIIIIIIIIIIIIIIIIIIIIIIIIIIIIIIIIIIIII22222222II2221111AAAAAAAA
IIIIIIIIIIIIIIIIIIIIIIIIIIIIIIIIIIIIII222222222I2221111AAAAAAAAA
IIIIIIIIIIIIIIIIIIIIIIIIIIIIIIIIIIIII22222222222221111AAAAAAAAAA
IIIIIIIIIIIIIIIIIIIIIIIIIIIIIIIIIIII22222222222221111AAAAAAAAAAA
IIIIIIIIIIIIIIIIIIIIIIIIIIIIIIIIIII22222222222221111AAAAAAAAAAAA
IIIIIIIIIIIIIIIIIIIIIIIIIIIIIIIIII22222222222221111AAAAAAAAAAAAA
IIIIIIIIIIIIIIIIIIIIIIIIIIIIIIIII22222222222221111AAAAAAAAAAAAAA
IIIIIIIIIIIIIIIIIIIIIIIIIIIIIIII22222222222221111AAAAAAAAAAAAAAA
IIIIIIIIIIIIIIIIIIIIIIIIIIIIIII22222222222221111AAAAAAAAAAAAAAAA
IIIIIIIIIIIIIIIIIIIIIIIIIIIIII22222222222221111AAAAAAAAAAAAAAAAA
IIIIIIIIIIIIIIIIIIIIIIIIIIIII22222222222221111AAAAAAAAAAAAAAAAAA
IIIIIIIIIIIIIIIIIIIIIIIIIIII22222222222221111AAAAAAAAAAAAAAAAAAA
IIIIIIIIIIIIIIIIIIIIIIIIIII22222222222221111AAAAAAAAAAAAAAAAAAAA
IIIIIIIIIIIIIIIIIIIIIIIIII22222222222221111AAAAAAAAAAAAAAAAAAAAA
IIIIIIIIIIIIIIIIIIIIIIIII22222222222221111AAAAAAAAAAAAAAAAAAAAAA
IIIIIIIIIIIIIIIIIIIIIIII22222222222221111AAAAAAAAAAAAAAAAAAAAAAA
IIIIIIIIIIIIIIIIIIIIIII22222222222221111AAAAAAAAAAAAAAAAAAAAAAAA
IIIIIIIIIIIIIIIIIIIIII22222222222221111AAAAAAAAAAAAAAAAAAAAAAAAA
IIIIIIIIIIIIIIIIIIIII22222222222221111AAAAAAAAAAAAAAAAAAAAAAAAAA
IIIIIIIIIIIIIIIIIIII22222222222221111AAAAAAAAAAAAAAAAAAAAAAAAAAA
IIIIIIIIIIIIIIIIIII22222222222221111AAAAAAAAAAAAAAAAAAAAAAAAAAAA
IIIIIIIIIIIIIIIIII22222222222221111AAAAAAAAAAAAAAAAAAAAAAAAAAAAA
IIIIIIIIIIIIIIIII22222222222221111AAAAAAAAAAAAAAAAAAAAAAAAAAAAAA
IIIIIIIIIIIIIIII22222222222221111AAAAAAAAAAAAAAAAAAAAAAAAAAAAAAA
IIIIIIIIIIIIIII22222222222221111AAAAAAAAAAAAAAAAAAAAAAAAAAAAAAAA
IIIIIIIIIIIIII22222222222221111AAAAAAAAAAAAAAAAAAAAAAAAAAAAAAAAA
IIIIIIIIIIIII22222222222221111AAAAAAAAAAAAAAAAAAAAAAAAAAAAAAAAAA
IIIIIIIIIIII22222222222221111AAAAAAAAAAAAAAAAAAAAAAAAAAAAAAAAAAA
IIIIIIIIIII22222222222221111AAAAAAAAAAAAAAAAAAAAAAAAAAAAAAAAAAAA
IIIIIIIIII22222222222221111AAAAAAAAAAAAAAAAAAAAAAAAAAAAAAAAAAAAA
IIIIIIIII22222222222221111AAAAAAAAAAAAAAAAAAAAAAAAAAAAAAAAAAAAAA
IIIIIIII22222222222221111AAAAAAAAAAAAAAAAAAAAAAAAAAAAAAAAAAAAAAA
IIIIIII22222222222221111AAAAAAAAAAAAAAAAAAAAAAAAAAAAAAAAAAAAAAAA
IIIIII22222222222221111AAAAAAAAAAAAAAAAAAAAAAAAAAAAAAAAAAAAAAAAA
IIIII22222222222221111AAAAAAAAAAAAAAAAAAAAAAAAAAAAAAAAAAAAAAAAAA
IIII22222222222221111AAAAAAAAAAAAAAAAAAAAAAAAAAAAAAAAAAAAAAAAAAA
III22222222222221111AAAAAAAAAAAAAAAAAAAAAAAAAAAAAAAAAAAAAAAAAAAA
II22222222222221111AAAAAAAAAAAAAAAAAAAAAAAAAAAAAAAAAAAAAAAAAAAAA
I22222222222221111AAAAAAAAAAAAAAAAAAAAAAAAAAAAAAAAAAAAAAAAAAAAAA
22222222222221111AAAAAAAAAAAAAAAAAAAAAAAAAAAAAAAAAAAAAAAAAAAAAAA
2222222222221111AAAAAAAAAAAAAAAAAAAAAAAAAAAAAAAAAAAAAAAAAAAAAAAA
222222222221111AAAAAAAAAAAAAAAAAAAAAAAAAAAAAAAAAAAAAAAAAAAAAAAAA
22222222221111AAAAAAAAAAAAAAAAAAAAAAAAAAAAAAAAAAAAAAAAAAAAAAAAAA
2222222221111AAAAAAAAAAAAAAAAAAAAAAAAAAAAAAAAAAAAAAAAAAAAAAAAAAA
222222221111AAAAAAAAAAAAAAAAAAAAAAAAAAAAAAAAAAAAAAAAAAAAAAAAAAAA
22222221111AAAAAAAAAAAAAAAAAAAAAAAAAAAAAAAAAAAAAAAAAAAAAAAAAAAAA
2222221111AAAAAAAAAAAAAAAAAAAAAAAAAAAAAAAAAAAAAAAAAAAAAAAAAAAAAA
222221111AAAAAAAAAAAAAAAAAAAAAAAAAAAAAAAAAAAAAAAAAAAAAAAAAAAAAAA
22221111AAAAAAAAAAAAAAAAAAAAAAAAAAAAAAAAAAAAAAAAAAAAAAAAAAAAAAAA
2221111AAAAAAAAAAAAAAAAAAAAAAAAAAAAAAAAAAAAAAAAAAAAAAAAAAAAAAAAA
221111AAAAAAAAAAAAAAAAAAAAAAAAAAAAAAAAAAAAAAAAAAAAAAAAAAAAAAAAAA
21111AAAAAAAAAAAAAAAAAAAAAAAAAAAAAAAAAAAAAAAAAAAAAAAAAAAAAAAAAAA
1111AAAAAAAAAAAAAAAAAAAAAAAAAAAAAAAAAAAAAAAAAAAAAAAAAAAAAAAAAAAA
111AAAAAAAAAAAAAAAAAAAAAAAAAAAAAAAAAAAAAAAAAAAAAAAAAAAAAAAAAAAAA
11AAAAAAAAAAAAAAAAAAAAAAAAAAAAAAAAAAAAAAAAAAAAAAAAAAAAAAAAAAAAAA
1AAAAAAAAAAAAAAAAAAAAAAAAAAAAAAAAAAAAAAAAAAAAAAAAAAAAAAAAAAAAAAA
AAAAAAAAAAAAAAAAAAAAAAAAAAAAAAAAAAAAAAAAAAAAAAAAAAAAAAAAAAAAAAAA
IIIIIIIIIIIIIIIIIIIIIIIIIIIIIIIIIIIIIIIIIIIIIIIIIIIIIIIIIIIIIIIA
IIIIIIIIIIIIIIIIIIIIIIIIIIIIIIIIIIIIIIIIIIIIIIIIIIIII1II1IIIIIIA
IIIIIIIIIIIIIIIIIIIIIIIIIIIIIIII2III2IIIIII1II1IIIIII1II1IIIIIIA
IIIIIIIIIIIIIIIIIIIIIIIIIIIIIII22II22IIIII11I11IIIII11I11IIIIIAA
IIIIIIIIIIIIIIIIIIIIIIIIIIIIII222I222IIII111111IIII111111IIIIAAA
IIIIIIIIIIIIIIIIIIIIIIIIIIIIII222I222IIII111111IIII111111IIIAAAA
IIIIIIIIIIIIIIIIIIIIIIIIIIIIII222I222IIII111111III1111111IIIAAAA
IIIIIIIIIIIIIIIIIIIIIIIIIIIIII222I222IIII111111III1111111IIAAAAA
IIIIIIIIIIIIIIIIIIIIIIIIIIIIII222I222II1I111111II11111111IIAAAAA
IIIIIIIIIIIIIIIIIIIIIIIIIIIIII222I222II1I111111I111111111IAAAAAA
IIIIIIIIIIIIIIIIIIIIIIIIIIIIII222I222I11I111111I111111111IAAAAAA
IIIIIIIIIIIIIIIIIIIIIIIIIIIIII222I222I11I111111I111111111AAAAAAA
IIIIIIIIIIIIIIIIIIIIIIIIIIIIII222I221I11I111111I11111111AAAAAAAA
IIIIIIIIIIIIIIIIIIIIIIIII2III2222I221I11I111111I11111111AAAAAAAA
IIIIIIIIIIIIIIIIIIIIIIII22III2222I211I11I111111I1111111AAAAAAAAA
IIIIIIIIIIIIIIIIIIIIIIII22II22222I211I11I111111I1111111AAAAAAAAA
IIIIIIIIIIIIIIIIIIIIIIII22II22222I211I11I111111I111111AAAAAAAAAA
IIIIIIIIIIIIIIIIIIIIIII222I222222I111111I1111111111111AAAAAAAAAA
IIIIIIIIIIIIIIIIIIIIII222222222221111111I111111111111AAAAAAAAAAA
IIIIIIIIIIIIIIIIIIIII2222222222211111111I11111111111AAAAAAAAAAAA
IIIIIIIIIIIIIIIIIIII22222222222111111111I1111111111AAAAAAAAAAAAA
IIIIIIIIIIIIIIIIIII2222222222211111111111111111111AAAAAAAAAAAAAA
IIIIIIIIIIIIIIIIII2222222222211111111111111111111AAAAAAAAAAAAAAA
IIIIIIIIIIIIIIIII2222222222211111111111111111111AAAAAAAAAAAAAAAA
IIIIIIIIIIIIIIII2222222222211111111111111111111AAAAAAAAAAAAAAAAA
IIIIIIIIIIIIIII2222222222211111111111111111111AAAAAAAAAAAAAAAAAA
IIIIIIIIIIIIII2222222222211111111111111111111AAAAAAAAAAAAAAAAAAA
IIIIIIIIIIIII2222222222211111111111111111111AAAAAAAAAAAAAAAAAAAA
IIIIIIIIIIII2222222222211111111111111111111AAAAAAAAAAAAAAAAAAAAA
IIIIIIIIIII2222222222211111111111111111111AAAAAAAAAAAAAAAAAAAAAA
IIIIIIIIII2222222222211111111111111111111AAAAAAAAAAAAAAAAAAAAAAA
IIIIIIIII2222222222211111111111111111111AAAAAAAAAAAAAAAAAAAAAAAA
IIIIIIIII222222222211111111111111111111AAAAAAAAAAAAAAAAAAAAAAAAA
IIIIIIIII22222222211111111111111111111AAAAAAAAAAAAAAAAAAAAAAAAAA
IIIIII2II2222222211111111111111111111AAAAAAAAAAAAAAAAAAAAAAAAAAA
IIIII22II222222211111111111111111111AAAAAAAAAAAAAAAAAAAAAAAAAAAA
IIII222I222222211111111111111111111AAAAAAAAAAAAAAAAAAAAAAAAAAAAA
III2222222222211111111111111111111AAAAAAAAAAAAAAAAAAAAAAAAAAAAAA
II2222222222211111111111111111111AAAAAAAAAAAAAAAAAAAAAAAAAAAAAAA
I2222222222211111111111111111111AAAAAAAAAAAAAAAAAAAAAAAAAAAAAAAA
2222222222211111111111111111111AAAAAAAAAAAAAAAAAAAAAAAAAAAAAAAAA
222222222211111111111111111111AAAAAAAAAAAAAAAAAAAAAAAAAAAAAAAAAA
22222222211111111111111111111AAAAAAAAAAAAAAAAAAAAAAAAAAAAAAAAAAA
2222222211111111111111111111AAAAAAAAAAAAAAAAAAAAAAAAAAAAAAAAAAAA
222222211111111111111111111AAAAAAAAAAAAAAAAAAAAAAAAAAAAAAAAAAAAA
22222211111111111111111111AAAAAAAAAAAAAAAAAAAAAAAAAAAAAAAAAAAAAA
2222211111111111111111111AAAAAAAAAAAAAAAAAAAAAAAAAAAAAAAAAAAAAAA
222211111111111111111111AAAAAAAAAAAAAAAAAAAAAAAAAAAAAAAAAAAAAAAA
22211111111111111111111AAAAAAAAAAAAAAAAAAAAAAAAAAAAAAAAAAAAAAAAA
2211111111111111111111AAAAAAAAAAAAAAAAAAAAAAAAAAAAAAAAAAAAAAAAAA
211111111111111111111AAAAAAAAAAAAAAAAAAAAAAAAAAAAAAAAAAAAAAAAAAA
11111111111111111111AAAAAAAAAAAAAAAAAAAAAAAAAAAAAAAAAAAAAAAAAAAA
1111111111111111111AAAAAAAAAAAAAAAAAAAAAAAAAAAAAAAAAAAAAAAAAAAAA
111111111111111111AAAAAAAAAAAAAAAAAAAAAAAAAAAAAAAAAAAAAAAAAAAAAA
11111111111111111AAAAAAAAAAAAAAAAAAAAAAAAAAAAAAAAAAAAAAAAAAAAAAA
1111111111111111AAAAAAAAAAAAAAAAAAAAAAAAAAAAAAAAAAAAAAAAAAAAAAAA
111111111111111AAAAAAAAAAAAAAAAAAAAAAAAAAAAAAAAAAAAAAAAAAAAAAAAA
11111111111111AAAAAAAAAAAAAAAAAAAAAAAAAAAAAAAAAAAAAAAAAAAAAAAAAA
1111111111111AAAAAAAAAAAAAAAAAAAAAAAAAAAAAAAAAAAAAAAAAAAAAAAAAAA
111111111111AAAAAAAAAAAAAAAAAAAAAAAAAAAAAAAAAAAAAAAAAAAAAAAAAAAA
11111111111AAAAAAAAAAAAAAAAAAAAAAAAAAAAAAAAAAAAAAAAAAAAAAAAAAAAA
1111111111AAAAAAAAAAAAAAAAAAAAAAAAAAAAAAAAAAAAAAAAAAAAAAAAAAAAAA
111111111AAAAAAAAAAAAAAAAAAAAAAAAAAAAAAAAAAAAAAAAAAAAAAAAAAAAAAA
11111111AAAAAAAAAAAAAAAAAAAAAAAAAAAAAAAAAAAAAAAAAAAAAAAAAAAAAAAA
1111111AAAAAAAAAAAAAAAAAAAAAAAAAAAAAAAAAAAAAAAAAAAAAAAAAAAAAAAAA
111111AAAAAAAAAAAAAAAAAAAAAAAAAAAAAAAAAAAAAAAAAAAAAAAAAAAAAAAAAA
11111AAAAAAAAAAAAAAAAAAAAAAAAAAAAAAAAAAAAAAAAAAAAAAAAAAAAAAAAAAA
1111AAAAAAAAAAAAAAAAAAAAAAAAAAAAAAAAAAAAAAAAAAAAAAAAAAAAAAAAAAAA
111AAAAAAAAAAAAAAAAAAAAAAAAAAAAAAAAAAAAAAAAAAAAAAAAAAAAAAAAAAAAA
11AAAAAAAAAAAAAAAAAAAAAAAAAAAAAAAAAAAAAAAAAAAAAAAAAAAAAAAAAAAAAA
1AAAAAAAAAAAAAAAAAAAAAAAAAAAAAAAAAAAAAAAAAAAAAAAAAAAAAAAAAAAAAAA
AAAAAAAAAAAAAAAAAAAAAAAAAAAAAAAAAAAAAAAAAAAAAAAAAAAAAAAAAAAAAAAA
IIIIIIIIIIIIIIIIIIIIIIIIIIIIIIIIIIIIIIIIIIIIIIIIIIIIIIIIIIIIIIIA
IIIIIIIIIIIIIIIIIIIIIIIIII1II1IIIIII1III1II1IIIIII1II1IIIIII1IIA
IIIIIIIIIIIIIIIIIIIIIIIII11I11IIIII11II11I11IIIII11I11IIIII11IAA
IIIIIIIIIIIIIIIIIIIIIIIII11I11IIII111I111111IIII111111IIII111AAA
IIIIIIIIIIIIIIIIIIIIIIII111111IIII111I111111IIII111111IIII111AAA
IIIIIIIIIIIIIIIIIIIIIIII111111IIII111I111111IIII111111III111AAAA
IIIIIIIIIIIIIIIIIIIIIIII111111IIII111I111111III1111111III111AAAA
IIIIIIIIIIIIIIIIIIIIIIII111111IIII111I111111III1111111II111AAAAA
IIIIIIIIIIIIIIIIIIIIIIII111111IIII111I111111II11111111II111AAAAA
IIIIIIIIIIIIIIIIIIIIIIII111111IIII111I111111II11111111I111AAAAAA
IIIIIIIIIIIIIIIIIIIIIIII111111IIII111I111111I111111111I111AAAAAA
IIIIIIIIIIIIIIIIIIIIIIII111111IIII111I111111I111111111111AAAAAAA
IIIIIIIIIIIIIIIIIIIIIIII111111IIII111I1111111111111111111AAAAAAA
IIIIIIIIIIIIIIIIIII1II1I111111III1111I111111111111111111AAAAAAAA
IIIIIIIIIIIIIIIIII11I11I111111II11111I11111111111111111AAAAAAAAA
IIIIIIIIIIIIIIIII111111I111111I111111I1111111111111111AAAAAAAAAA
IIIIIIIIIIIIIIII1111111I1111111111111I111111111111111AAAAAAAAAAA
IIIIIIIIIIIIIII11111111I1111111111111I11111111111111AAAAAAAAAAAA
IIIIIIIIIIIIII111111111I1111111111111I1111111111111AAAAAAAAAAAAA
IIIIIIIIIIIII1111111111111111111111111111111111111AAAAAAAAAAAAAA
IIIIIIIIIIII1111111111111111111111111111111111111AAAAAAAAAAAAAAA
IIIIIIIIIII1111111111111111111111111111111111111AAAAAAAAAAAAAAAA
IIIIIIIIII1111111111111111111111111111111111111AAAAAAAAAAAAAAAAA
IIIIIIIII1111111111111111111111111111111111111AAAAAAAAAAAAAAAAAA
IIIIIIII1111111111111111111111111111111111111AAAAAAAAAAAAAAAAAAA
IIIIIII1111111111111111111111111111111111111AAAAAAAAAAAAAAAAAAAA
IIIIII1111111111111111111111111111111111111AAAAAAAAAAAAAAAAAAAAA
IIIII1111111111111111111111111111111111111AAAAAAAAAAAAAAAAAAAAAA
IIII1111111111111111111111111111111111111AAAAAAAAAAAAAAAAAAAAAAA
III1111111111111111111111111111111111111AAAAAAAAAAAAAAAAAAAAAAAA
II1111111111111111111111111111111111111AAAAAAAAAAAAAAAAAAAAAAAAA
I1111111111111111111111111111111111111AAAAAAAAAAAAAAAAAAAAAAAAAA
1111111111111111111111111111111111111AAAAAAAAAAAAAAAAAAAAAAAAAAA
111111111111111111111111111111111111AAAAAAAAAAAAAAAAAAAAAAAAAAAA
11111111111111111111111111111111111AAAAAAAAAAAAAAAAAAAAAAAAAAAAA
1111111111111111111111111111111111AAAAAAAAAAAAAAAAAAAAAAAAAAAAAA
111111111111111111111111111111111AAAAAAAAAAAAAAAAAAAAAAAAAAAAAAA
11111111111111111111111111111111AAAAAAAAAAAAAAAAAAAAAAAAAAAAAAAA
1111111111111111111111111111111AAAAAAAAAAAAAAAAAAAAAAAAAAAAAAAAA
111111111111111111111111111111AAAAAAAAAAAAAAAAAAAAAAAAAAAAAAAAAA
11111111111111111111111111111AAAAAAAAAAAAAAAAAAAAAAAAAAAAAAAAAAA
1111111111111111111111111111AAAAAAAAAAAAAAAAAAAAAAAAAAAAAAAAAAAA
111111111111111111111111111AAAAAAAAAAAAAAAAAAAAAAAAAAAAAAAAAAAAA
11111111111111111111111111AAAAAAAAAAAAAAAAAAAAAAAAAAAAAAAAAAAAAA
1111111111111111111111111AAAAAAAAAAAAAAAAAAAAAAAAAAAAAAAAAAAAAAA
111111111111111111111111AAAAAAAAAAAAAAAAAAAAAAAAAAAAAAAAAAAAAAAA
11111111111111111111111AAAAAAAAAAAAAAAAAAAAAAAAAAAAAAAAAAAAAAAAA
1111111111111111111111AAAAAAAAAAAAAAAAAAAAAAAAAAAAAAAAAAAAAAAAAA
111111111111111111111AAAAAAAAAAAAAAAAAAAAAAAAAAAAAAAAAAAAAAAAAAA
11111111111111111111AAAAAAAAAAAAAAAAAAAAAAAAAAAAAAAAAAAAAAAAAAAA
1111111111111111111AAAAAAAAAAAAAAAAAAAAAAAAAAAAAAAAAAAAAAAAAAAAA
111111111111111111AAAAAAAAAAAAAAAAAAAAAAAAAAAAAAAAAAAAAAAAAAAAAA
11111111111111111AAAAAAAAAAAAAAAAAAAAAAAAAAAAAAAAAAAAAAAAAAAAAAA
1111111111111111AAAAAAAAAAAAAAAAAAAAAAAAAAAAAAAAAAAAAAAAAAAAAAAA
111111111111111AAAAAAAAAAAAAAAAAAAAAAAAAAAAAAAAAAAAAAAAAAAAAAAAA
11111111111111AAAAAAAAAAAAAAAAAAAAAAAAAAAAAAAAAAAAAAAAAAAAAAAAAA
1111111111111AAAAAAAAAAAAAAAAAAAAAAAAAAAAAAAAAAAAAAAAAAAAAAAAAAA
111111111111AAAAAAAAAAAAAAAAAAAAAAAAAAAAAAAAAAAAAAAAAAAAAAAAAAAA
11111111111AAAAAAAAAAAAAAAAAAAAAAAAAAAAAAAAAAAAAAAAAAAAAAAAAAAAA
1111111111AAAAAAAAAAAAAAAAAAAAAAAAAAAAAAAAAAAAAAAAAAAAAAAAAAAAAA
111111111AAAAAAAAAAAAAAAAAAAAAAAAAAAAAAAAAAAAAAAAAAAAAAAAAAAAAAA
11111111AAAAAAAAAAAAAAAAAAAAAAAAAAAAAAAAAAAAAAAAAAAAAAAAAAAAAAAA
1111111AAAAAAAAAAAAAAAAAAAAAAAAAAAAAAAAAAAAAAAAAAAAAAAAAAAAAAAAA
111111AAAAAAAAAAAAAAAAAAAAAAAAAAAAAAAAAAAAAAAAAAAAAAAAAAAAAAAAAA
11111AAAAAAAAAAAAAAAAAAAAAAAAAAAAAAAAAAAAAAAAAAAAAAAAAAAAAAAAAAA
1111AAAAAAAAAAAAAAAAAAAAAAAAAAAAAAAAAAAAAAAAAAAAAAAAAAAAAAAAAAAA
111AAAAAAAAAAAAAAAAAAAAAAAAAAAAAAAAAAAAAAAAAAAAAAAAAAAAAAAAAAAAA
11AAAAAAAAAAAAAAAAAAAAAAAAAAAAAAAAAAAAAAAAAAAAAAAAAAAAAAAAAAAAAA
1AAAAAAAAAAAAAAAAAAAAAAAAAAAAAAAAAAAAAAAAAAAAAAAAAAAAAAAAAAAAAAA
AAAAAAAAAAAAAAAAAAAAAAAAAAAAAAAAAAAAAAAAAAAAAAAAAAAAAAAAAAAAAAAA
IIIIIIIIIIIIIIIIIIIIIIIIIIIIIIIIIIIIIIIIIIIIIIIIIIIII1IIIIII1IIA
IIIIIIIIIIIIIIIIIIIIIIIIIIIIIIIIIIII1III1II1IIIIII1II1IIIIII1IIA
IIIIIIIIIIIIIIIIIIIIIIIIIIIIIIIIIIII1III1I11IIIII11I11IIIII11IAA
IIIIIIIIIIIIIIIIIIIIIIIIIIII1IIIIII11II11I11IIIII11I11IIIII11IAA
IIIIIIIIIIIIIIIIIIIIIIIIIIII1IIIIII11II11I11IIIII11I11IIII111AAA
IIIIIIIIIIIIIIIIIIIIIIII2II11IIIII111I111111IIII111111IIII111AAA
IIIIIIIIIIIIIIIIIIIIIII22I111IIII11111111111III1111111III111AAAA
IIIIIIIIIIIIIIIIIIIIIII22I111IIII11111111111II11111111II111AAAAA
IIIIIIIIIIIIIIIIIIIIIII221111III111111111111II11111111II111AAAAA
IIIIIIIIIIIIIIIIIIIIIII221111III111111111111II11111111I111AAAAAA
IIIIIIIIIIIIIIIIIIIIIII221111III111111111111I111111111I111AAAAAA
IIIIIIIIIIIIIIIIIIIIIII221111III1111111111111111111111111AAAAAAA
IIIIIIIIIIIIIIIIIIIIIII121111I1I1111111111111111111111111AAAAAAA
IIIIIIIIIIIIIIIIIIII2II121111I1I1111111111111111111111111AAAAAAA
IIIIIIIIIIIIIIIIIIII2II12111111I111111111111111111111111AAAAAAAA
IIIIIIIIIIIIIIIIIII22I112111111I111111111111111111111111AAAAAAAA
IIIIIIIIIIIIIIIIII2221112111111I11111111111111111111111AAAAAAAAA
IIIIIIIIIIIIIIIII2221111211111111111111111111111111111AAAAAAAAAA
IIIIIIIIIIIIIIII2221111121111111111111111111111111111AAAAAAAAAAA
IIIIIIIIIIIIIII2221111112111111111111111111111111111AAAAAAAAAAAA
IIIIIIIIIIIIII2221111111111111111111111111111111111AAAAAAAAAAAAA
IIIIIIIIIIIII2221111111111111111111111111111111111AAAAAAAAAAAAAA
IIIIIIIIIIIII221111111111111111111111111111111111AAAAAAAAAAAAAAA
IIIIIIIIIIII2221111111111111111111111111111111111AAAAAAAAAAAAAAA
IIIIIIIIIII2221111111111111111111111111111111111AAAAAAAAAAAAAAAA
IIIIIIIIII2221111111111111111111111111111111111AAAAAAAAAAAAAAAAA
IIIIIIIII2221111111111111111111111111111111111AAAAAAAAAAAAAAAAAA
IIIIIIII2221111111111111111111111111111111111AAAAAAAAAAAAAAAAAAA
IIIIIII2221111111111111111111111111111111111AAAAAAAAAAAAAAAAAAAA
IIIIII2221111111111111111111111111111111111AAAAAAAAAAAAAAAAAAAAA
IIIII2221111111111111111111111111111111111AAAAAAAAAAAAAAAAAAAAAA
IIII2221111111111111111111111111111111111AAAAAAAAAAAAAAAAAAAAAAA
IIII221111111111111111111111111111111111AAAAAAAAAAAAAAAAAAAAAAAA
III2221111111111111111111111111111111111AAAAAAAAAAAAAAAAAAAAAAAA
III221111111111111111111111111111111111AAAAAAAAAAAAAAAAAAAAAAAAA
II2221111111111111111111111111111111111AAAAAAAAAAAAAAAAAAAAAAAAA
II222111111111111111111111111111111111AAAAAAAAAAAAAAAAAAAAAAAAAA
I2221111111111111111111111111111111111AAAAAAAAAAAAAAAAAAAAAAAAAA
2221111111111111111111111111111111111AAAAAAAAAAAAAAAAAAAAAAAAAAA
221111111111111111111111111111111111AAAAAAAAAAAAAAAAAAAAAAAAAAAA
21111111111111111111111111111111111AAAAAAAAAAAAAAAAAAAAAAAAAAAAA
1111111111111111111111111111111111AAAAAAAAAAAAAAAAAAAAAAAAAAAAAA
111111111111111111111111111111111AAAAAAAAAAAAAAAAAAAAAAAAAAAAAAA
11111111111111111111111111111111AAAAAAAAAAAAAAAAAAAAAAAAAAAAAAAA
1111111111111111111111111111111AAAAAAAAAAAAAAAAAAAAAAAAAAAAAAAAA
111111111111111111111111111111AAAAAAAAAAAAAAAAAAAAAAAAAAAAAAAAAA
11111111111111111111111111111AAAAAAAAAAAAAAAAAAAAAAAAAAAAAAAAAAA
1111111111111111111111111111AAAAAAAAAAAAAAAAAAAAAAAAAAAAAAAAAAAA
111111111111111111111111111AAAAAAAAAAAAAAAAAAAAAAAAAAAAAAAAAAAAA
11111111111111111111111111AAAAAAAAAAAAAAAAAAAAAAAAAAAAAAAAAAAAAA
1111111111111111111111111AAAAAAAAAAAAAAAAAAAAAAAAAAAAAAAAAAAAAAA
111111111111111111111111AAAAAAAAAAAAAAAAAAAAAAAAAAAAAAAAAAAAAAAA
11111111111111111111111AAAAAAAAAAAAAAAAAAAAAAAAAAAAAAAAAAAAAAAAA
1111111111111111111111AAAAAAAAAAAAAAAAAAAAAAAAAAAAAAAAAAAAAAAAAA
111111111111111111111AAAAAAAAAAAAAAAAAAAAAAAAAAAAAAAAAAAAAAAAAAA
11111111111111111111AAAAAAAAAAAAAAAAAAAAAAAAAAAAAAAAAAAAAAAAAAAA
1111111111111111111AAAAAAAAAAAAAAAAAAAAAAAAAAAAAAAAAAAAAAAAAAAAA
111111111111111111AAAAAAAAAAAAAAAAAAAAAAAAAAAAAAAAAAAAAAAAAAAAAA
11111111111111111AAAAAAAAAAAAAAAAAAAAAAAAAAAAAAAAAAAAAAAAAAAAAAA
1111111111111111AAAAAAAAAAAAAAAAAAAAAAAAAAAAAAAAAAAAAAAAAAAAAAAA
111111111111111AAAAAAAAAAAAAAAAAAAAAAAAAAAAAAAAAAAAAAAAAAAAAAAAA
11111111111111AAAAAAAAAAAAAAAAAAAAAAAAAAAAAAAAAAAAAAAAAAAAAAAAAA
1111111111111AAAAAAAAAAAAAAAAAAAAAAAAAAAAAAAAAAAAAAAAAAAAAAAAAAA
111111111111AAAAAAAAAAAAAAAAAAAAAAAAAAAAAAAAAAAAAAAAAAAAAAAAAAAA
11111111111AAAAAAAAAAAAAAAAAAAAAAAAAAAAAAAAAAAAAAAAAAAAAAAAAAAAA
1111111111AAAAAAAAAAAAAAAAAAAAAAAAAAAAAAAAAAAAAAAAAAAAAAAAAAAAAA
111111111AAAAAAAAAAAAAAAAAAAAAAAAAAAAAAAAAAAAAAAAAAAAAAAAAAAAAAA
11111111AAAAAAAAAAAAAAAAAAAAAAAAAAAAAAAAAAAAAAAAAAAAAAAAAAAAAAAA
1111111AAAAAAAAAAAAAAAAAAAAAAAAAAAAAAAAAAAAAAAAAAAAAAAAAAAAAAAAA
111111AAAAAAAAAAAAAAAAAAAAAAAAAAAAAAAAAAAAAAAAAAAAAAAAAAAAAAAAAA
11111AAAAAAAAAAAAAAAAAAAAAAAAAAAAAAAAAAAAAAAAAAAAAAAAAAAAAAAAAAA
1111AAAAAAAAAAAAAAAAAAAAAAAAAAAAAAAAAAAAAAAAAAAAAAAAAAAAAAAAAAAA
111AAAAAAAAAAAAAAAAAAAAAAAAAAAAAAAAAAAAAAAAAAAAAAAAAAAAAAAAAAAAA
11AAAAAAAAAAAAAAAAAAAAAAAAAAAAAAAAAAAAAAAAAAAAAAAAAAAAAAAAAAAAAA
1AAAAAAAAAAAAAAAAAAAAAAAAAAAAAAAAAAAAAAAAAAAAAAAAAAAAAAAAAAAAAAA
AAAAAAAAAAAAAAAAAAAAAAAAAAAAAAAAAAAAAAAAAAAAAAAAAAAAAAAAAAAAAAAA
IIIIIIIIIIIIIIIIIIIIIIIIIIIIIIIIIIII2IIIIIIIII1IIIIII1II1IIIIIIA
IIIIIIIIIIIIIIIIIIIIIIIIIIIIIIIIIII22IIIIIIII11IIIII11I11IIIIIAA
IIIIIIIIIIIIIIIIIIIIIIIIIIIIIIIIII222IIIIIII111IIII111111IIIIAAA
IIIIIIIIIIIIIIIIIIIIIIIIIIIIIIIII2222IIIIII1111III1111111IIIAAAA
IIIIIIIIIIIIIIIIIIIIIIIIIIIIIIIII2222IIIIII1111III1111111IIAAAAA
IIIIIIIIIIIIIIIIIIIIIIIIIIIIIIIII2222IIIII11111II11111111IIAAAAA
IIIIIIIIIIIIIIIIIIIIIIIIIIIIIII2I2222IIII111111I111111111IAAAAAA
IIIIIIIIIIIIIIIIIIIIIIIIIIIIII22I2222III11111111111111111AAAAAAA
IIIIIIIIIIIIIIIIIIIIIIIIIIIII222I2222II11111111111111111AAAAAAAA
IIIIIIIIIIIIIIIIIIIIIIIIIIII2222I2222I11111111111111111AAAAAAAAA
IIIIIIIIIIIIIIIIIIIIIIIIIII22222I222211111111111111111AAAAAAAAAA
IIIIIIIIIIIIIIIIIIIIIIIIII222222I22211111111111111111AAAAAAAAAAA
IIIIIIIIIIIIIIIIIIIIIIIII2222222I2211111111111111111AAAAAAAAAAAA
IIIIIIIIIIIIIIIIIIIIIIII22222222I211111111111111111AAAAAAAAAAAAA
IIIIIIIIIIIIIIIIIIIIIII222222222I11111111111111111AAAAAAAAAAAAAA
IIIIIIIIIIIIIIIIIIIIII222222222211111111111111111AAAAAAAAAAAAAAA
IIIIIIIIIIIIIIIIIIIII222222222211111111111111111AAAAAAAAAAAAAAAA
IIIIIIIIIIIIIIIIIIII222222222211111111111111111AAAAAAAAAAAAAAAAA
IIIIIIIIIIIIIIIIIII222222222211111111111111111AAAAAAAAAAAAAAAAAA
IIIIIIIIIIIIIIIIII222222222211111111111111111AAAAAAAAAAAAAAAAAAA
IIIIIIIIIIIIIIIII222222222211111111111111111AAAAAAAAAAAAAAAAAAAA
IIIIIIIIIIIIIIII222222222211111111111111111AAAAAAAAAAAAAAAAAAAAA
IIIIIIIIIIIIIII222222222211111111111111111AAAAAAAAAAAAAAAAAAAAAA
IIIIIIIIIIIIII222222222211111111111111111AAAAAAAAAAAAAAAAAAAAAAA
IIIIIIIIIIIII222222222211111111111111111AAAAAAAAAAAAAAAAAAAAAAAA
IIIIIIIIIIIII22222222211111111111111111AAAAAAAAAAAAAAAAAAAAAAAAA
IIIIIIIIIIII222222222211111111111111111AAAAAAAAAAAAAAAAAAAAAAAAA
IIIIIIIIIII222222222211111111111111111AAAAAAAAAAAAAAAAAAAAAAAAAA
IIIIIIIIII222222222211111111111111111AAAAAAAAAAAAAAAAAAAAAAAAAAA
IIIIIIIIII22222222221111111111111111AAAAAAAAAAAAAAAAAAAAAAAAAAAA
IIIIIIIII222222222211111111111111111AAAAAAAAAAAAAAAAAAAAAAAAAAAA
IIIIIIIII22222222211111111111111111AAAAAAAAAAAAAAAAAAAAAAAAAAAAA
IIIIIIII222222222211111111111111111AAAAAAAAAAAAAAAAAAAAAAAAAAAAA
IIIIIII222222222211111111111111111AAAAAAAAAAAAAAAAAAAAAAAAAAAAAA
IIIIII222222222211111111111111111AAAAAAAAAAAAAAAAAAAAAAAAAAAAAAA
IIIII222222222211111111111111111AAAAAAAAAAAAAAAAAAAAAAAAAAAAAAAA
IIII222222222211111111111111111AAAAAAAAAAAAAAAAAAAAAAAAAAAAAAAAA
III222222222211111111111111111AAAAAAAAAAAAAAAAAAAAAAAAAAAAAAAAAA
II222222222211111111111111111AAAAAAAAAAAAAAAAAAAAAAAAAAAAAAAAAAA
I222222222211111111111111111AAAAAAAAAAAAAAAAAAAAAAAAAAAAAAAAAAAA
222222222211111111111111111AAAAAAAAAAAAAAAAAAAAAAAAAAAAAAAAAAAAA
22222222211111111111111111AAAAAAAAAAAAAAAAAAAAAAAAAAAAAAAAAAAAAA
2222222211111111111111111AAAAAAAAAAAAAAAAAAAAAAAAAAAAAAAAAAAAAAA
222222211111111111111111AAAAAAAAAAAAAAAAAAAAAAAAAAAAAAAAAAAAAAAA
22222211111111111111111AAAAAAAAAAAAAAAAAAAAAAAAAAAAAAAAAAAAAAAAA
2222211111111111111111AAAAAAAAAAAAAAAAAAAAAAAAAAAAAAAAAAAAAAAAAA
222211111111111111111AAAAAAAAAAAAAAAAAAAAAAAAAAAAAAAAAAAAAAAAAAA
22211111111111111111AAAAAAAAAAAAAAAAAAAAAAAAAAAAAAAAAAAAAAAAAAAA
2211111111111111111AAAAAAAAAAAAAAAAAAAAAAAAAAAAAAAAAAAAAAAAAAAAA
211111111111111111AAAAAAAAAAAAAAAAAAAAAAAAAAAAAAAAAAAAAAAAAAAAAA
11111111111111111AAAAAAAAAAAAAAAAAAAAAAAAAAAAAAAAAAAAAAAAAAAAAAA
1111111111111111AAAAAAAAAAAAAAAAAAAAAAAAAAAAAAAAAAAAAAAAAAAAAAAA
111111111111111AAAAAAAAAAAAAAAAAAAAAAAAAAAAAAAAAAAAAAAAAAAAAAAAA
11111111111111AAAAAAAAAAAAAAAAAAAAAAAAAAAAAAAAAAAAAAAAAAAAAAAAAA
1111111111111AAAAAAAAAAAAAAAAAAAAAAAAAAAAAAAAAAAAAAAAAAAAAAAAAAA
111111111111AAAAAAAAAAAAAAAAAAAAAAAAAAAAAAAAAAAAAAAAAAAAAAAAAAAA
11111111111AAAAAAAAAAAAAAAAAAAAAAAAAAAAAAAAAAAAAAAAAAAAAAAAAAAAA
1111111111AAAAAAAAAAAAAAAAAAAAAAAAAAAAAAAAAAAAAAAAAAAAAAAAAAAAAA
111111111AAAAAAAAAAAAAAAAAAAAAAAAAAAAAAAAAAAAAAAAAAAAAAAAAAAAAAA
11111111AAAAAAAAAAAAAAAAAAAAAAAAAAAAAAAAAAAAAAAAAAAAAAAAAAAAAAAA
1111111AAAAAAAAAAAAAAAAAAAAAAAAAAAAAAAAAAAAAAAAAAAAAAAAAAAAAAAAA
111111AAAAAAAAAAAAAAAAAAAAAAAAAAAAAAAAAAAAAAAAAAAAAAAAAAAAAAAAAA
11111AAAAAAAAAAAAAAAAAAAAAAAAAAAAAAAAAAAAAAAAAAAAAAAAAAAAAAAAAAA
1111AAAAAAAAAAAAAAAAAAAAAAAAAAAAAAAAAAAAAAAAAAAAAAAAAAAAAAAAAAAA
111AAAAAAAAAAAAAAAAAAAAAAAAAAAAAAAAAAAAAAAAAAAAAAAAAAAAAAAAAAAAA
11AAAAAAAAAAAAAAAAAAAAAAAAAAAAAAAAAAAAAAAAAAAAAAAAAAAAAAAAAAAAAA
1AAAAAAAAAAAAAAAAAAAAAAAAAAAAAAAAAAAAAAAAAAAAAAAAAAAAAAAAAAAAAAA
AAAAAAAAAAAAAAAAAAAAAAAAAAAAAAAAAAAAAAAAAAAAAAAAAAAAAAAAAAAAAAAA
IIIIIIIIIIIIIIIIIIIIIIIIIIIIIIIIIIIIIIIIIIIIIIIIII1II1IIIIII1IIA
IIIIIIIIIIIIIIIIIIIIIIIIIIIII1IIIIII1III1II1IIIIII1II1IIIIII1IIA
IIIIIIIIIIIIIIIIIIIIIIIIIIIII1IIIIII1III1I11IIIII11I11IIIII11IAA
IIIIIIIIIIIIIIIIIIIIIIIIIIIII1IIIII11II11I11IIIII11I11IIIII11IAA
IIIIIIIIIIIIIIIIIIIIIIIIIIIII1IIIII11II11I11IIIII11111IIII111AAA
IIIIIIIIIIIIIIIIIIIIIIIIIIIII1IIII111I111111IIII111111IIII111AAA
IIIIIIIIIIIIIIIIIIIIIIIIIIIII1IIII111I111111IIII111111III111AAAA
IIIIIIIIIIIIIIIIIIIIIIIIIIIII1IIII111I111111III1111111III111AAAA
IIIIIIIIIIIIIIIIIIIIIII2II1II1III11111111111III1111111III111AAAA
IIIIIIIIIIIIIIIIIIIIII22I11II1II111111111111II11111111II111AAAAA
IIIIIIIIIIIIIIIIIIIIII22I11II1II111111111111II11111111I111AAAAAA
IIIIIIIIIIIIIIIIIIIIII22I11II1II111111111111I111111111I111AAAAAA
IIIIIIIIIIIIIIIIIIIIII22I11II1II111111111111I111111111111AAAAAAA
IIIIIIIIIIIIIIIIIIIIII22I11II1II1111111111111111111111111AAAAAAA
IIIIIIIIIIIIIIIIIIIIII12I11II1II111111111111111111111111AAAAAAAA
IIIIIIIIIIIIIIIIIII2II12I11II1II111111111111111111111111AAAAAAAA
IIIIIIIIIIIIIIIIII22I112I11I11II11111111111111111111111AAAAAAAAA
IIIIIIIIIIIIIIIII2221112I11111I11111111111111111111111AAAAAAAAAA
IIIIIIIIIIIIIIII22211112I1111111111111111111111111111AAAAAAAAAAA
IIIIIIIIIIIIIII222111112I111111111111111111111111111AAAAAAAAAAAA
IIIIIIIIIIIIII2221111112111111111111111111111111111AAAAAAAAAAAAA
IIIIIIIIIIIII2221111111111111111111111111111111111AAAAAAAAAAAAAA
IIIIIIIIIIII2221111111111111111111111111111111111AAAAAAAAAAAAAAA
IIIIIIIIIII2221111111111111111111111111111111111AAAAAAAAAAAAAAAA
IIIIIIIIII2221111111111111111111111111111111111AAAAAAAAAAAAAAAAA
IIIIIIIII2221111111111111111111111111111111111AAAAAAAAAAAAAAAAAA
IIIIIIII2221111111111111111111111111111111111AAAAAAAAAAAAAAAAAAA
IIIIIII2221111111111111111111111111111111111AAAAAAAAAAAAAAAAAAAA
IIIIII2221111111111111111111111111111111111AAAAAAAAAAAAAAAAAAAAA
IIIII2221111111111111111111111111111111111AAAAAAAAAAAAAAAAAAAAAA
IIII2221111111111111111111111111111111111AAAAAAAAAAAAAAAAAAAAAAA
IIII221111111111111111111111111111111111AAAAAAAAAAAAAAAAAAAAAAAA
III2221111111111111111111111111111111111AAAAAAAAAAAAAAAAAAAAAAAA
III221111111111111111111111111111111111AAAAAAAAAAAAAAAAAAAAAAAAA
III21111111111111111111111111111111111AAAAAAAAAAAAAAAAAAAAAAAAAA
III1111111111111111111111111111111111AAAAAAAAAAAAAAAAAAAAAAAAAAA
2II1111111111111111111111111111111111AAAAAAAAAAAAAAAAAAAAAAAAAAA
2I1111111111111111111111111111111111AAAAAAAAAAAAAAAAAAAAAAAAAAAA
21111111111111111111111111111111111AAAAAAAAAAAAAAAAAAAAAAAAAAAAA
1111111111111111111111111111111111AAAAAAAAAAAAAAAAAAAAAAAAAAAAAA
111111111111111111111111111111111AAAAAAAAAAAAAAAAAAAAAAAAAAAAAAA
11111111111111111111111111111111AAAAAAAAAAAAAAAAAAAAAAAAAAAAAAAA
1111111111111111111111111111111AAAAAAAAAAAAAAAAAAAAAAAAAAAAAAAAA
111111111111111111111111111111AAAAAAAAAAAAAAAAAAAAAAAAAAAAAAAAAA
11111111111111111111111111111AAAAAAAAAAAAAAAAAAAAAAAAAAAAAAAAAAA
1111111111111111111111111111AAAAAAAAAAAAAAAAAAAAAAAAAAAAAAAAAAAA
111111111111111111111111111AAAAAAAAAAAAAAAAAAAAAAAAAAAAAAAAAAAAA
11111111111111111111111111AAAAAAAAAAAAAAAAAAAAAAAAAAAAAAAAAAAAAA
1111111111111111111111111AAAAAAAAAAAAAAAAAAAAAAAAAAAAAAAAAAAAAAA
111111111111111111111111AAAAAAAAAAAAAAAAAAAAAAAAAAAAAAAAAAAAAAAA
11111111111111111111111AAAAAAAAAAAAAAAAAAAAAAAAAAAAAAAAAAAAAAAAA
1111111111111111111111AAAAAAAAAAAAAAAAAAAAAAAAAAAAAAAAAAAAAAAAAA
111111111111111111111AAAAAAAAAAAAAAAAAAAAAAAAAAAAAAAAAAAAAAAAAAA
11111111111111111111AAAAAAAAAAAAAAAAAAAAAAAAAAAAAAAAAAAAAAAAAAAA
1111111111111111111AAAAAAAAAAAAAAAAAAAAAAAAAAAAAAAAAAAAAAAAAAAAA
111111111111111111AAAAAAAAAAAAAAAAAAAAAAAAAAAAAAAAAAAAAAAAAAAAAA
11111111111111111AAAAAAAAAAAAAAAAAAAAAAAAAAAAAAAAAAAAAAAAAAAAAAA
1111111111111111AAAAAAAAAAAAAAAAAAAAAAAAAAAAAAAAAAAAAAAAAAAAAAAA
111111111111111AAAAAAAAAAAAAAAAAAAAAAAAAAAAAAAAAAAAAAAAAAAAAAAAA
11111111111111AAAAAAAAAAAAAAAAAAAAAAAAAAAAAAAAAAAAAAAAAAAAAAAAAA
1111111111111AAAAAAAAAAAAAAAAAAAAAAAAAAAAAAAAAAAAAAAAAAAAAAAAAAA
111111111111AAAAAAAAAAAAAAAAAAAAAAAAAAAAAAAAAAAAAAAAAAAAAAAAAAAA
11111111111AAAAAAAAAAAAAAAAAAAAAAAAAAAAAAAAAAAAAAAAAAAAAAAAAAAAA
1111111111AAAAAAAAAAAAAAAAAAAAAAAAAAAAAAAAAAAAAAAAAAAAAAAAAAAAAA
111111111AAAAAAAAAAAAAAAAAAAAAAAAAAAAAAAAAAAAAAAAAAAAAAAAAAAAAAA
11111111AAAAAAAAAAAAAAAAAAAAAAAAAAAAAAAAAAAAAAAAAAAAAAAAAAAAAAAA
1111111AAAAAAAAAAAAAAAAAAAAAAAAAAAAAAAAAAAAAAAAAAAAAAAAAAAAAAAAA
111111AAAAAAAAAAAAAAAAAAAAAAAAAAAAAAAAAAAAAAAAAAAAAAAAAAAAAAAAAA
11111AAAAAAAAAAAAAAAAAAAAAAAAAAAAAAAAAAAAAAAAAAAAAAAAAAAAAAAAAAA
1111AAAAAAAAAAAAAAAAAAAAAAAAAAAAAAAAAAAAAAAAAAAAAAAAAAAAAAAAAAAA
111AAAAAAAAAAAAAAAAAAAAAAAAAAAAAAAAAAAAAAAAAAAAAAAAAAAAAAAAAAAAA
11AAAAAAAAAAAAAAAAAAAAAAAAAAAAAAAAAAAAAAAAAAAAAAAAAAAAAAAAAAAAAA
1AAAAAAAAAAAAAAAAAAAAAAAAAAAAAAAAAAAAAAAAAAAAAAAAAAAAAAAAAAAAAAA
AAAAAAAAAAAAAAAAAAAAAAAAAAAAAAAAAAAAAAAAAAAAAAAAAAAAAAAAAAAAAAAA
IIIIIIIIIIIIIIIIIIIIIIIIIIIIIIIIIIII1IIIIII1IIIIII1II1IIIIII1IIA
IIIIIIIIIIIIIIIIIIIIIIIIIIIIIIIIIIII11IIIII1IIIIII1II1IIIIII1IIA
IIIIIIIIIIIIIIIIIIIIIIIIIIIIIIIIIIII11IIIII1IIIIII1II1IIIIII1IAA
IIIIIIIIIIIIIIIIIIIIIIIIIIIIIIIIIIII11IIIII1IIIIII1II1IIIIII1AAA
IIIIIIIIIIIIIIIIIIIIIIIIIIIIIIIIIIII11IIIII1IIIIII1II1IIIIIIAAAA
IIIIIIIIIIIIIIIIIIIIIIIIIIIIIIIIIIII11IIIII1IIIIII1II1IIIIIAAAAA
IIIIIIIIIIIIIIIIIIIIIIIIIIIIIIIIIIII11IIIII1IIIIII1II1IIIIAAAAAA
IIIIIIIIIIIIIIIIIIIIIIIIIIIIIIIIIIII11IIIII1IIIIII1II1IIIAAAAAAA
IIIIIIIIIIIIIIIIIIIIIIIIIIIIIIIIIIII11IIIII1IIIIII1II1IIAAAAAAAA
IIIIIIIIIIIIIIIIIIIIIIIIIIIIIIIIIIII11IIIII1IIIIII1II1IAAAAAAAAA
IIIIIIIIIIIIIIIIIIIIIIIIIIIIIIIIIIII11IIIII1IIIIII1II1AAAAAAAAAA
IIIIIIIIIIIIIIIIIIIIIIIIIIIIIIIIIIII11IIIII1IIIIII1IIAAAAAAAAAAA
IIIIIIIIIIIIIIIIIIIIIIIIIIIIIIIIIIII11IIIII1IIIIII1IAAAAAAAAAAAA
IIIIIIIIIIIIIIIIIIIIIIIIIIIIIIIIIIII11IIIII1IIIIII1AAAAAAAAAAAAA
IIIIIIIIIIIIIIIIIIIIIIIIIIIIIIIIIIII11IIIII1IIIIIIAAAAAAAAAAAAAA
IIIIIIIIIIIIIIIIIIIIIIIIIIIIIIIIIIII11IIIII1IIIIIAAAAAAAAAAAAAAA
IIIIIIIIIIIIIIIIIIIIIIIIIIIIIIIIIIII11IIIII1IIIIAAAAAAAAAAAAAAAA
IIIIIIIIIIIIIIIIIIIIIIIIIIIIIIIIIIII11IIIII1IIIAAAAAAAAAAAAAAAAA
IIIIIIIIIIIIIIIIIIIIIIIIIIIIIIIIIIII11IIIII1IIAAAAAAAAAAAAAAAAAA
IIIIIIIIIIIIIIIIIIIIIIIIIIIIIIIIIIII11IIIII1IAAAAAAAAAAAAAAAAAAA
IIIIIIIIIIIIIIIIIIIIIIIIIIIIIIIIIIII11IIIII1AAAAAAAAAAAAAAAAAAAA
IIIIIIIIIIIIIIIIIIIIIIIIIIIIIIIIIIII11IIIIIAAAAAAAAAAAAAAAAAAAAA
IIIIIIIIIIIIIIIIIIIIIIIIIIIIIIIIIIII11IIIIAAAAAAAAAAAAAAAAAAAAAA
IIIIIIIIIIIIIIIIIIIIIIIIIIIIIIIIIIII11IIIAAAAAAAAAAAAAAAAAAAAAAA
IIIIIIIIIIIIIIIIIIIIIIIIIIIIIIIIIIII11IIAAAAAAAAAAAAAAAAAAAAAAAA
IIIIIIIIIIIIIIIIIIIIIIIIIIIIIIIIIIII11IAAAAAAAAAAAAAAAAAAAAAAAAA
IIIIIIIIIIIIIIIIIIIIIIIIIIIIIIIIIIII11AAAAAAAAAAAAAAAAAAAAAAAAAA
IIIIIIIIIIIIIIIIIIIIIIIIIIIIIIIIIIII1AAAAAAAAAAAAAAAAAAAAAAAAAAA
IIIIIIIIIIIIIIIIIIIIIIIIIIIIIIIIIIIIAAAAAAAAAAAAAAAAAAAAAAAAAAAA
IIIIIIIIIIIIIIIIIIIIIIIIIIIIIIIIIIIAAAAAAAAAAAAAAAAAAAAAAAAAAAAA
IIIIIIIIIIIIIIIIIIIIIIIIIIIIIIIIIIAAAAAAAAAAAAAAAAAAAAAAAAAAAAAA
IIIIIIIIIIIIIIIIIIIIIIIIIIIIIIIIIAAAAAAAAAAAAAAAAAAAAAAAAAAAAAAA
IIIIIIIIIIIIIIIIIIIIIIIIIIIIIIIIAAAAAAAAAAAAAAAAAAAAAAAAAAAAAAAA
IIIIIIIIIIIIIIIIIIIIIIIIIIIIIIIAAAAAAAAAAAAAAAAAAAAAAAAAAAAAAAAA
IIIIIIIIIIIIIIIIIIIIIIIIIIIIIIAAAAAAAAAAAAAAAAAAAAAAAAAAAAAAAAAA
IIIIIIIIIIIIIIIIIIIIIIIIIIIIIAAAAAAAAAAAAAAAAAAAAAAAAAAAAAAAAAAA
IIIIIIIIIIIIIIIIIIIIIIIIIIIIAAAAAAAAAAAAAAAAAAAAAAAAAAAAAAAAAAAA
IIIIIIIIIIIIIIIIIIIIIIIIIIIAAAAAAAAAAAAAAAAAAAAAAAAAAAAAAAAAAAAA
IIIIIIIIIIIIIIIIIIIIIIIIIIAAAAAAAAAAAAAAAAAAAAAAAAAAAAAAAAAAAAAA
IIIIIIIIIIIIIIIIIIIIIIIIIAAAAAAAAAAAAAAAAAAAAAAAAAAAAAAAAAAAAAAA
IIIIIIIIIIIIIIIIIIIIIIIIAAAAAAAAAAAAAAAAAAAAAAAAAAAAAAAAAAAAAAAA
IIIIIIIIIIIIIIIIIIIIIIIAAAAAAAAAAAAAAAAAAAAAAAAAAAAAAAAAAAAAAAAA
IIIIIIIIIIIIIIIIIIIIIIAAAAAAAAAAAAAAAAAAAAAAAAAAAAAAAAAAAAAAAAAA
IIIIIIIIIIIIIIIIIIIIIAAAAAAAAAAAAAAAAAAAAAAAAAAAAAAAAAAAAAAAAAAA
IIIIIIIIIIIIIIIIIIIIAAAAAAAAAAAAAAAAAAAAAAAAAAAAAAAAAAAAAAAAAAAA
IIIIIIIIIIIIIIIIIIIAAAAAAAAAAAAAAAAAAAAAAAAAAAAAAAAAAAAAAAAAAAAA
IIIIIIIIIIIIIIIIIIAAAAAAAAAAAAAAAAAAAAAAAAAAAAAAAAAAAAAAAAAAAAAA
IIIIIIIIIIIIIIIIIAAAAAAAAAAAAAAAAAAAAAAAAAAAAAAAAAAAAAAAAAAAAAAA
IIIIIIIIIIIIIIIIAAAAAAAAAAAAAAAAAAAAAAAAAAAAAAAAAAAAAAAAAAAAAAAA
IIIIIIIIIIIIIIIAAAAAAAAAAAAAAAAAAAAAAAAAAAAAAAAAAAAAAAAAAAAAAAAA
IIIIIIIIIIIIIIAAAAAAAAAAAAAAAAAAAAAAAAAAAAAAAAAAAAAAAAAAAAAAAAAA
IIIIIIIIIIIIIAAAAAAAAAAAAAAAAAAAAAAAAAAAAAAAAAAAAAAAAAAAAAAAAAAA
IIIIIIIIIIIIAAAAAAAAAAAAAAAAAAAAAAAAAAAAAAAAAAAAAAAAAAAAAAAAAAAA
IIIIIIIIIIIAAAAAAAAAAAAAAAAAAAAAAAAAAAAAAAAAAAAAAAAAAAAAAAAAAAAA
IIIIIIIIIIAAAAAAAAAAAAAAAAAAAAAAAAAAAAAAAAAAAAAAAAAAAAAAAAAAAAAA
IIIIIIIIIAAAAAAAAAAAAAAAAAAAAAAAAAAAAAAAAAAAAAAAAAAAAAAAAAAAAAAA
IIIIIIIIAAAAAAAAAAAAAAAAAAAAAAAAAAAAAAAAAAAAAAAAAAAAAAAAAAAAAAAA
IIIIIIIAAAAAAAAAAAAAAAAAAAAAAAAAAAAAAAAAAAAAAAAAAAAAAAAAAAAAAAAA
IIIIIIAAAAAAAAAAAAAAAAAAAAAAAAAAAAAAAAAAAAAAAAAAAAAAAAAAAAAAAAAA
IIIIIAAAAAAAAAAAAAAAAAAAAAAAAAAAAAAAAAAAAAAAAAAAAAAAAAAAAAAAAAAA
IIIIAAAAAAAAAAAAAAAAAAAAAAAAAAAAAAAAAAAAAAAAAAAAAAAAAAAAAAAAAAAA
IIIAAAAAAAAAAAAAAAAAAAAAAAAAAAAAAAAAAAAAAAAAAAAAAAAAAAAAAAAAAAAA
IIAAAAAAAAAAAAAAAAAAAAAAAAAAAAAAAAAAAAAAAAAAAAAAAAAAAAAAAAAAAAAA
IAAAAAAAAAAAAAAAAAAAAAAAAAAAAAAAAAAAAAAAAAAAAAAAAAAAAAAAAAAAAAAA
AAAAAAAAAAAAAAAAAAAAAAAAAAAAAAAAAAAAAAAAAAAAAAAAAAAAAAAAAAAAAAAA
IIIIIIIIIIIIIIIIIIIIIIIIIIIIIIIIIIIIIIIIIIIIIIIIIIIII1IIIIII1IIA
IIIIIIIIIIIIIIIIIIIIIIIIIIIIIIIIIIII1IIIIII1IIIIII1II1IIIIII1IIA
IIIIIIIIIIIIIIIIIIIIIIIIIIIIIIIIIII11IIIII11IIIII11I11IIIII11IAA
IIIIIIIIIIIIIIIIIIIIIIIIIIIIIIIIIII11IIIII11IIII111111IIII111AAA
IIIIIIIIIIIIIIIIIIIIIIIIIIIIIIIIII111IIII111IIII111111IIII111AAA
IIIIIIIIIIIIIIIIIIIIIIIIIIIIIIIII1111III1111III1111111III111AAAA
IIIIIIIIIIIIIIIIIIIIIIIIIIIIIIIII1111III1111III1111111II111AAAAA
IIIIIIIIIIIIIIIIIIIIIIIIIIIIIIIII1111II11111II11111111II111AAAAA
IIIIIIIIIIIIIIIIIIIIIIIIIIIIIIIII1111II11111II11111111I111AAAAAA
IIIIIIIIIIIIIIIIIIIIIIIIIIIIIII121111I111111I111111111I111AAAAAA
IIIIIIIIIIIIIIIIIIIIIIIIIIIIII112111111111111111111111111AAAAAAA
IIIIIIIIIIIIIIIIIIIIIIIIIIIII111211111111111111111111111AAAAAAAA
IIIIIIIIIIIIIIIIIIIIIIIIIIII111121111111111111111111111AAAAAAAAA
IIIIIIIIIIIIIIIIIIIIIIIIIII111112111111111111111111111AAAAAAAAAA
IIIIIIIIIIIIIIIIIIIIIIIIII111111211111111111111111111AAAAAAAAAAA
IIIIIIIIIIIIIIIIIIIIIIIII111111111111111111111111111AAAAAAAAAAAA
IIIIIIIIIIIIIIIIIIIIIIII111111111111111111111111111AAAAAAAAAAAAA
IIIIIIIIIIIIIIIIIIIIIII111111111111111111111111111AAAAAAAAAAAAAA
IIIIIIIIIIIIIIIIIIIIII111111111111111111111111111AAAAAAAAAAAAAAA
IIIIIIIIIIIIIIIIIIIII111111111111111111111111111AAAAAAAAAAAAAAAA
IIIIIIIIIIIIIIIIIIII111111111111111111111111111AAAAAAAAAAAAAAAAA
IIIIIIIIIIIIIIIIIII111111111111111111111111111AAAAAAAAAAAAAAAAAA
IIIIIIIIIIIIIIIIII111111111111111111111111111AAAAAAAAAAAAAAAAAAA
IIIIIIIIIIIIIIIII111111111111111111111111111AAAAAAAAAAAAAAAAAAAA
IIIIIIIIIIIIIIII111111111111111111111111111AAAAAAAAAAAAAAAAAAAAA
IIIIIIIIIIIIIII111111111111111111111111111AAAAAAAAAAAAAAAAAAAAAA
IIIIIIIIIIIIII111111111111111111111111111AAAAAAAAAAAAAAAAAAAAAAA
IIIIIIIIIIIII111111111111111111111111111AAAAAAAAAAAAAAAAAAAAAAAA
IIIIIIIIIIII111111111111111111111111111AAAAAAAAAAAAAAAAAAAAAAAAA
IIIIIIIIIII111111111111111111111111111AAAAAAAAAAAAAAAAAAAAAAAAAA
IIIIIIIIIII11111111111111111111111111AAAAAAAAAAAAAAAAAAAAAAAAAAA
IIIIIIIIII111111111111111111111111111AAAAAAAAAAAAAAAAAAAAAAAAAAA
IIIIIIIII111111111111111111111111111AAAAAAAAAAAAAAAAAAAAAAAAAAAA
IIIIIIII111111111111111111111111111AAAAAAAAAAAAAAAAAAAAAAAAAAAAA
IIIIIII111111111111111111111111111AAAAAAAAAAAAAAAAAAAAAAAAAAAAAA
IIIIII111111111111111111111111111AAAAAAAAAAAAAAAAAAAAAAAAAAAAAAA
IIIII111111111111111111111111111AAAAAAAAAAAAAAAAAAAAAAAAAAAAAAAA
IIII111111111111111111111111111AAAAAAAAAAAAAAAAAAAAAAAAAAAAAAAAA
III111111111111111111111111111AAAAAAAAAAAAAAAAAAAAAAAAAAAAAAAAAA
II111111111111111111111111111AAAAAAAAAAAAAAAAAAAAAAAAAAAAAAAAAAA
I111111111111111111111111111AAAAAAAAAAAAAAAAAAAAAAAAAAAAAAAAAAAA
111111111111111111111111111AAAAAAAAAAAAAAAAAAAAAAAAAAAAAAAAAAAAA
11111111111111111111111111AAAAAAAAAAAAAAAAAAAAAAAAAAAAAAAAAAAAAA
1111111111111111111111111AAAAAAAAAAAAAAAAAAAAAAAAAAAAAAAAAAAAAAA
111111111111111111111111AAAAAAAAAAAAAAAAAAAAAAAAAAAAAAAAAAAAAAAA
11111111111111111111111AAAAAAAAAAAAAAAAAAAAAAAAAAAAAAAAAAAAAAAAA
1111111111111111111111AAAAAAAAAAAAAAAAAAAAAAAAAAAAAAAAAAAAAAAAAA
111111111111111111111AAAAAAAAAAAAAAAAAAAAAAAAAAAAAAAAAAAAAAAAAAA
11111111111111111111AAAAAAAAAAAAAAAAAAAAAAAAAAAAAAAAAAAAAAAAAAAA
1111111111111111111AAAAAAAAAAAAAAAAAAAAAAAAAAAAAAAAAAAAAAAAAAAAA
111111111111111111AAAAAAAAAAAAAAAAAAAAAAAAAAAAAAAAAAAAAAAAAAAAAA
11111111111111111AAAAAAAAAAAAAAAAAAAAAAAAAAAAAAAAAAAAAAAAAAAAAAA
1111111111111111AAAAAAAAAAAAAAAAAAAAAAAAAAAAAAAAAAAAAAAAAAAAAAAA
111111111111111AAAAAAAAAAAAAAAAAAAAAAAAAAAAAAAAAAAAAAAAAAAAAAAAA
11111111111111AAAAAAAAAAAAAAAAAAAAAAAAAAAAAAAAAAAAAAAAAAAAAAAAAA
1111111111111AAAAAAAAAAAAAAAAAAAAAAAAAAAAAAAAAAAAAAAAAAAAAAAAAAA
111111111111AAAAAAAAAAAAAAAAAAAAAAAAAAAAAAAAAAAAAAAAAAAAAAAAAAAA
11111111111AAAAAAAAAAAAAAAAAAAAAAAAAAAAAAAAAAAAAAAAAAAAAAAAAAAAA
1111111111AAAAAAAAAAAAAAAAAAAAAAAAAAAAAAAAAAAAAAAAAAAAAAAAAAAAAA
111111111AAAAAAAAAAAAAAAAAAAAAAAAAAAAAAAAAAAAAAAAAAAAAAAAAAAAAAA
11111111AAAAAAAAAAAAAAAAAAAAAAAAAAAAAAAAAAAAAAAAAAAAAAAAAAAAAAAA
1111111AAAAAAAAAAAAAAAAAAAAAAAAAAAAAAAAAAAAAAAAAAAAAAAAAAAAAAAAA
111111AAAAAAAAAAAAAAAAAAAAAAAAAAAAAAAAAAAAAAAAAAAAAAAAAAAAAAAAAA
11111AAAAAAAAAAAAAAAAAAAAAAAAAAAAAAAAAAAAAAAAAAAAAAAAAAAAAAAAAAA
1111AAAAAAAAAAAAAAAAAAAAAAAAAAAAAAAAAAAAAAAAAAAAAAAAAAAAAAAAAAAA
111AAAAAAAAAAAAAAAAAAAAAAAAAAAAAAAAAAAAAAAAAAAAAAAAAAAAAAAAAAAAA
11AAAAAAAAAAAAAAAAAAAAAAAAAAAAAAAAAAAAAAAAAAAAAAAAAAAAAAAAAAAAAA
1AAAAAAAAAAAAAAAAAAAAAAAAAAAAAAAAAAAAAAAAAAAAAAAAAAAAAAAAAAAAAAA
AAAAAAAAAAAAAAAAAAAAAAAAAAAAAAAAAAAAAAAAAAAAAAAAAAAAAAAAAAAAAAAA
IIIIIIIIIIIIIIIIIIIIIIIIIIIIIIIIIIII11IIIII1IIIIII1II1IIIIII1IIA
IIIIIIIIIIIIIIIIIIIIIIIIIIIIIIIIIII111IIII11IIIII11I11IIIII11IAA
IIIIIIIIIIIIIIIIIIIIIIIIIIIIIIIIII1111III111IIII111111IIII111AAA
IIIIIIIIIIIIIIIIIIIIIIIIIIIIIIIII11111II1111III1111111III111AAAA
IIIIIIIIIIIIIIIIIIIIIIIIIIIIIIIII11111I11111II11111111II111AAAAA
IIIIIIIIIIIIIIIIIIIIIIIIIIIIIIII111111I11111II11111111II111AAAAA
IIIIIIIIIIIIIIIIIIIIIIIIIIIIIIII111111I11111II11111111I111AAAAAA
IIIIIIIIIIIIIIIIIIIIIIIIIIIIIII1111111111111I111111111I111AAAAAA
IIIIIIIIIIIIIIIIIIIIIIIIIIIIIII1111111111111I111111111111AAAAAAA
IIIIIIIIIIIIIIIIIIIIIIIIIIIIII111111111111111111111111111AAAAAAA
IIIIIIIIIIIIIIIIIIIIIIIIIIIII111111111111111111111111111AAAAAAAA
IIIIIIIIIIIIIIIIIIIIIIIIIIII111111111111111111111111111AAAAAAAAA
IIIIIIIIIIIIIIIIIIIIIIIIIII111111111111111111111111111AAAAAAAAAA
IIIIIIIIIIIIIIIIIIIIIIIIII111111111111111111111111111AAAAAAAAAAA
IIIIIIIIIIIIIIIIIIIIIIIII111111111111111111111111111AAAAAAAAAAAA
IIIIIIIIIIIIIIIIIIIIIIII111111111111111111111111111AAAAAAAAAAAAA
IIIIIIIIIIIIIIIIIIIIIII111111111111111111111111111AAAAAAAAAAAAAA
IIIIIIIIIIIIIIIIIIIIII111111111111111111111111111AAAAAAAAAAAAAAA
IIIIIIIIIIIIIIIIIIIII111111111111111111111111111AAAAAAAAAAAAAAAA
IIIIIIIIIIIIIIIIIIII111111111111111111111111111AAAAAAAAAAAAAAAAA
IIIIIIIIIIIIIIIIIII111111111111111111111111111AAAAAAAAAAAAAAAAAA
IIIIIIIIIIIIIIIIII111111111111111111111111111AAAAAAAAAAAAAAAAAAA
IIIIIIIIIIIIIIIII111111111111111111111111111AAAAAAAAAAAAAAAAAAAA
IIIIIIIIIIIIIIII111111111111111111111111111AAAAAAAAAAAAAAAAAAAAA
IIIIIIIIIIIIIII111111111111111111111111111AAAAAAAAAAAAAAAAAAAAAA
IIIIIIIIIIIIII111111111111111111111111111AAAAAAAAAAAAAAAAAAAAAAA
IIIIIIIIIIIII111111111111111111111111111AAAAAAAAAAAAAAAAAAAAAAAA
IIIIIIIIIIII111111111111111111111111111AAAAAAAAAAAAAAAAAAAAAAAAA
IIIIIIIIIII111111111111111111111111111AAAAAAAAAAAAAAAAAAAAAAAAAA
IIIIIIIIII111111111111111111111111111AAAAAAAAAAAAAAAAAAAAAAAAAAA
IIIIIIIII111111111111111111111111111AAAAAAAAAAAAAAAAAAAAAAAAAAAA
IIIIIIII111111111111111111111111111AAAAAAAAAAAAAAAAAAAAAAAAAAAAA
IIIIIII111111111111111111111111111AAAAAAAAAAAAAAAAAAAAAAAAAAAAAA
IIIIII111111111111111111111111111AAAAAAAAAAAAAAAAAAAAAAAAAAAAAAA
IIIII111111111111111111111111111AAAAAAAAAAAAAAAAAAAAAAAAAAAAAAAA
IIII111111111111111111111111111AAAAAAAAAAAAAAAAAAAAAAAAAAAAAAAAA
III111111111111111111111111111AAAAAAAAAAAAAAAAAAAAAAAAAAAAAAAAAA
II111111111111111111111111111AAAAAAAAAAAAAAAAAAAAAAAAAAAAAAAAAAA
I111111111111111111111111111AAAAAAAAAAAAAAAAAAAAAAAAAAAAAAAAAAAA
111111111111111111111111111AAAAAAAAAAAAAAAAAAAAAAAAAAAAAAAAAAAAA
11111111111111111111111111AAAAAAAAAAAAAAAAAAAAAAAAAAAAAAAAAAAAAA
1111111111111111111111111AAAAAAAAAAAAAAAAAAAAAAAAAAAAAAAAAAAAAAA
111111111111111111111111AAAAAAAAAAAAAAAAAAAAAAAAAAAAAAAAAAAAAAAA
11111111111111111111111AAAAAAAAAAAAAAAAAAAAAAAAAAAAAAAAAAAAAAAAA
1111111111111111111111AAAAAAAAAAAAAAAAAAAAAAAAAAAAAAAAAAAAAAAAAA
111111111111111111111AAAAAAAAAAAAAAAAAAAAAAAAAAAAAAAAAAAAAAAAAAA
11111111111111111111AAAAAAAAAAAAAAAAAAAAAAAAAAAAAAAAAAAAAAAAAAAA
1111111111111111111AAAAAAAAAAAAAAAAAAAAAAAAAAAAAAAAAAAAAAAAAAAAA
111111111111111111AAAAAAAAAAAAAAAAAAAAAAAAAAAAAAAAAAAAAAAAAAAAAA
11111111111111111AAAAAAAAAAAAAAAAAAAAAAAAAAAAAAAAAAAAAAAAAAAAAAA
1111111111111111AAAAAAAAAAAAAAAAAAAAAAAAAAAAAAAAAAAAAAAAAAAAAAAA
111111111111111AAAAAAAAAAAAAAAAAAAAAAAAAAAAAAAAAAAAAAAAAAAAAAAAA
11111111111111AAAAAAAAAAAAAAAAAAAAAAAAAAAAAAAAAAAAAAAAAAAAAAAAAA
1111111111111AAAAAAAAAAAAAAAAAAAAAAAAAAAAAAAAAAAAAAAAAAAAAAAAAAA
111111111111AAAAAAAAAAAAAAAAAAAAAAAAAAAAAAAAAAAAAAAAAAAAAAAAAAAA
11111111111AAAAAAAAAAAAAAAAAAAAAAAAAAAAAAAAAAAAAAAAAAAAAAAAAAAAA
1111111111AAAAAAAAAAAAAAAAAAAAAAAAAAAAAAAAAAAAAAAAAAAAAAAAAAAAAA
111111111AAAAAAAAAAAAAAAAAAAAAAAAAAAAAAAAAAAAAAAAAAAAAAAAAAAAAAA
11111111AAAAAAAAAAAAAAAAAAAAAAAAAAAAAAAAAAAAAAAAAAAAAAAAAAAAAAAA
1111111AAAAAAAAAAAAAAAAAAAAAAAAAAAAAAAAAAAAAAAAAAAAAAAAAAAAAAAAA
111111AAAAAAAAAAAAAAAAAAAAAAAAAAAAAAAAAAAAAAAAAAAAAAAAAAAAAAAAAA
11111AAAAAAAAAAAAAAAAAAAAAAAAAAAAAAAAAAAAAAAAAAAAAAAAAAAAAAAAAAA
1111AAAAAAAAAAAAAAAAAAAAAAAAAAAAAAAAAAAAAAAAAAAAAAAAAAAAAAAAAAAA
111AAAAAAAAAAAAAAAAAAAAAAAAAAAAAAAAAAAAAAAAAAAAAAAAAAAAAAAAAAAAA
11AAAAAAAAAAAAAAAAAAAAAAAAAAAAAAAAAAAAAAAAAAAAAAAAAAAAAAAAAAAAAA
1AAAAAAAAAAAAAAAAAAAAAAAAAAAAAAAAAAAAAAAAAAAAAAAAAAAAAAAAAAAAAAA
AAAAAAAAAAAAAAAAAAAAAAAAAAAAAAAAAAAAAAAAAAAAAAAAAAAAAAAAAAAAAAAA
IIIIIIIIIIIIIIIIIIIIIIIIIIIIIIIIIIIIIIIIIII1II1IIIIII1IIIIIIIIIA
IIIIIIIIIIIIIIIIIIIIIIIIIIIII2IIIIII2IIIIII1II1IIIIII1IIIIIIIIIA
IIIIIIIIIIIIIIIIIIIIIIIIIIII22IIIII22IIIII11I11IIIII11IIIIIIIIAA
IIIIIIIIIIIIIIIIIIIIIIIIIII222IIII222IIII111111IIII111IIIIIIIAAA
IIIIIIIIIIIIIIIIIIIIIIIIII2222III2222III1111111III1111IIIIIIAAAA
IIIIIIIIIIIIIIIIIIIIIIIIII2222III2222III1111111III1111IIIIIAAAAA
IIIIIIIIIIIIIIIIIIIIIIIIII2222III2222III1111111III1111IIIIAAAAAA
IIIIIIIIIIIIIIIIIIIIIIIIII2222III2222I1I1111111I1I1111IIIIAAAAAA
IIIIIIIIIIIIIIIIIIIIIIII2I2222I2I2222I1I1111111I1I1111IIIIAAAAAA
IIIIIIIIIIIIIIIIIIIIIII22I222222I222211I111111111I1111IIIAAAAAAA
IIIIIIIIIIIIIIIIIIIIII222I222222I2221111111111111I1111IIAAAAAAAA
IIIIIIIIIIIIIIIIIIIIII222I222222I2221111111111111I1111IAAAAAAAAA
IIIIIIIIIIIIIIIIIIIII2222I222222I2211111111111111I1111IAAAAAAAAA
IIIIIIIIIIIIIIIIIIII22222I222222I2111111111111111I1111AAAAAAAAAA
IIIIIIIIIIIIIIIIIII222222I222222I1111111111111111I111AAAAAAAAAAA
IIIIIIIIIIIIIIIIII2222222222222211111111111111111I11AAAAAAAAAAAA
IIIIIIIIIIIIIIIII22222222222222111111111111111111I1AAAAAAAAAAAAA
IIIIIIIIIIIIIIII222222222222221111111111111111111IAAAAAAAAAAAAAA
IIIIIIIIIIIIIII2222222222222211111111111111111111AAAAAAAAAAAAAAA
IIIIIIIIIIIIII2222222222222211111111111111111111AAAAAAAAAAAAAAAA
IIIIIIIIIIIII2222222222222211111111111111111111AAAAAAAAAAAAAAAAA
IIIIIIIIIIII2222222222222211111111111111111111AAAAAAAAAAAAAAAAAA
IIIIIIIIIII2222222222222211111111111111111111AAAAAAAAAAAAAAAAAAA
IIIIIIIIII2222222222222211111111111111111111AAAAAAAAAAAAAAAAAAAA
IIIIIIIII2222222222222211111111111111111111AAAAAAAAAAAAAAAAAAAAA
IIIIIIII2222222222222211111111111111111111AAAAAAAAAAAAAAAAAAAAAA
IIIIIII2222222222222211111111111111111111AAAAAAAAAAAAAAAAAAAAAAA
IIIIII2222222222222211111111111111111111AAAAAAAAAAAAAAAAAAAAAAAA
IIIII2222222222222211111111111111111111AAAAAAAAAAAAAAAAAAAAAAAAA
IIII2222222222222211111111111111111111AAAAAAAAAAAAAAAAAAAAAAAAAA
III2222222222222211111111111111111111AAAAAAAAAAAAAAAAAAAAAAAAAAA
III222222222222211111111111111111111AAAAAAAAAAAAAAAAAAAAAAAAAAAA
II2222222222222211111111111111111111AAAAAAAAAAAAAAAAAAAAAAAAAAAA
II222222222222211111111111111111111AAAAAAAAAAAAAAAAAAAAAAAAAAAAA
I2222222222222211111111111111111111AAAAAAAAAAAAAAAAAAAAAAAAAAAAA
2222222222222211111111111111111111AAAAAAAAAAAAAAAAAAAAAAAAAAAAAA
222222222222211111111111111111111AAAAAAAAAAAAAAAAAAAAAAAAAAAAAAA
22222222222211111111111111111111AAAAAAAAAAAAAAAAAAAAAAAAAAAAAAAA
2222222222211111111111111111111AAAAAAAAAAAAAAAAAAAAAAAAAAAAAAAAA
222222222211111111111111111111AAAAAAAAAAAAAAAAAAAAAAAAAAAAAAAAAA
22222222211111111111111111111AAAAAAAAAAAAAAAAAAAAAAAAAAAAAAAAAAA
2222222211111111111111111111AAAAAAAAAAAAAAAAAAAAAAAAAAAAAAAAAAAA
222222211111111111111111111AAAAAAAAAAAAAAAAAAAAAAAAAAAAAAAAAAAAA
22222211111111111111111111AAAAAAAAAAAAAAAAAAAAAAAAAAAAAAAAAAAAAA
2222211111111111111111111AAAAAAAAAAAAAAAAAAAAAAAAAAAAAAAAAAAAAAA
222211111111111111111111AAAAAAAAAAAAAAAAAAAAAAAAAAAAAAAAAAAAAAAA
22211111111111111111111AAAAAAAAAAAAAAAAAAAAAAAAAAAAAAAAAAAAAAAAA
2211111111111111111111AAAAAAAAAAAAAAAAAAAAAAAAAAAAAAAAAAAAAAAAAA
211111111111111111111AAAAAAAAAAAAAAAAAAAAAAAAAAAAAAAAAAAAAAAAAAA
11111111111111111111AAAAAAAAAAAAAAAAAAAAAAAAAAAAAAAAAAAAAAAAAAAA
1111111111111111111AAAAAAAAAAAAAAAAAAAAAAAAAAAAAAAAAAAAAAAAAAAAA
111111111111111111AAAAAAAAAAAAAAAAAAAAAAAAAAAAAAAAAAAAAAAAAAAAAA
11111111111111111AAAAAAAAAAAAAAAAAAAAAAAAAAAAAAAAAAAAAAAAAAAAAAA
1111111111111111AAAAAAAAAAAAAAAAAAAAAAAAAAAAAAAAAAAAAAAAAAAAAAAA
111111111111111AAAAAAAAAAAAAAAAAAAAAAAAAAAAAAAAAAAAAAAAAAAAAAAAA
11111111111111AAAAAAAAAAAAAAAAAAAAAAAAAAAAAAAAAAAAAAAAAAAAAAAAAA
1111111111111AAAAAAAAAAAAAAAAAAAAAAAAAAAAAAAAAAAAAAAAAAAAAAAAAAA
111111111111AAAAAAAAAAAAAAAAAAAAAAAAAAAAAAAAAAAAAAAAAAAAAAAAAAAA
11111111111AAAAAAAAAAAAAAAAAAAAAAAAAAAAAAAAAAAAAAAAAAAAAAAAAAAAA
1111111111AAAAAAAAAAAAAAAAAAAAAAAAAAAAAAAAAAAAAAAAAAAAAAAAAAAAAA
111111111AAAAAAAAAAAAAAAAAAAAAAAAAAAAAAAAAAAAAAAAAAAAAAAAAAAAAAA
11111111AAAAAAAAAAAAAAAAAAAAAAAAAAAAAAAAAAAAAAAAAAAAAAAAAAAAAAAA
1111111AAAAAAAAAAAAAAAAAAAAAAAAAAAAAAAAAAAAAAAAAAAAAAAAAAAAAAAAA
111111AAAAAAAAAAAAAAAAAAAAAAAAAAAAAAAAAAAAAAAAAAAAAAAAAAAAAAAAAA
11111AAAAAAAAAAAAAAAAAAAAAAAAAAAAAAAAAAAAAAAAAAAAAAAAAAAAAAAAAAA
1111AAAAAAAAAAAAAAAAAAAAAAAAAAAAAAAAAAAAAAAAAAAAAAAAAAAAAAAAAAAA
111AAAAAAAAAAAAAAAAAAAAAAAAAAAAAAAAAAAAAAAAAAAAAAAAAAAAAAAAAAAAA
11AAAAAAAAAAAAAAAAAAAAAAAAAAAAAAAAAAAAAAAAAAAAAAAAAAAAAAAAAAAAAA
1AAAAAAAAAAAAAAAAAAAAAAAAAAAAAAAAAAAAAAAAAAAAAAAAAAAAAAAAAAAAAAA
AAAAAAAAAAAAAAAAAAAAAAAAAAAAAAAAAAAAAAAAAAAAAAAAAAAAAAAAAAAAAAAA
IIIIIIIIIIIIIIIIIIIIIIIIIIIIIIIIIIII2IIIIIIIII1IIIIII1IIIIIIIIIA
IIIIIIIIIIIIIIIIIIIIIIIIIIIIIIIIIII22IIIIIIII11IIIII11IIIIIIIIAA
IIIIIIIIIIIIIIIIIIIIIIIIIIIIIIIIII222IIIIIII111IIII111IIIIIIIAAA
IIIIIIIIIIIIIIIIIIIIIIIIIIIIIIIII2222IIIIII1111III1111IIIIIIAAAA
IIIIIIIIIIIIIIIIIIIIIIIIIIIIIIII22222IIIII11111II11111IIIIIAAAAA
IIIIIIIIIIIIIIIIIIIIIIIIIIIIIII222222IIII111111I111111IIIIAAAAAA
IIIIIIIIIIIIIIIIIIIIIIIIIIIIIII222222IIII1111111111111IIIAAAAAAA
IIIIIIIIIIIIIIIIIIIIIIIIIIIIII2222222III11111111111111IIIAAAAAAA
IIIIIIIIIIIIIIIIIIIIIIIIIIIIII2222222II111111111111111IIAAAAAAAA
IIIIIIIIIIIIIIIIIIIIIIIIIIIII22222222II111111111111111IIAAAAAAAA
IIIIIIIIIIIIIIIIIIIIIIIIIIIII22222222II111111111111111IAAAAAAAAA
IIIIIIIIIIIIIIIIIIIIIIIIIIII222222222I1111111111111111IAAAAAAAAA
IIIIIIIIIIIIIIIIIIIIIIIIIIII22222222211111111111111111AAAAAAAAAA
IIIIIIIIIIIIIIIIIIIIIIIIIII222222222211111111111111111AAAAAAAAAA
IIIIIIIIIIIIIIIIIIIIIIIIII222222222211111111111111111AAAAAAAAAAA
IIIIIIIIIIIIIIIIIIIIIIIII222222222211111111111111111AAAAAAAAAAAA
IIIIIIIIIIIIIIIIIIIIIIII222222222211111111111111111AAAAAAAAAAAAA
IIIIIIIIIIIIIIIIIIIIIII222222222211111111111111111AAAAAAAAAAAAAA
IIIIIIIIIIIIIIIIIIIIII222222222211111111111111111AAAAAAAAAAAAAAA
IIIIIIIIIIIIIIIIIIIII222222222211111111111111111AAAAAAAAAAAAAAAA
IIIIIIIIIIIIIIIIIIII222222222211111111111111111AAAAAAAAAAAAAAAAA
IIIIIIIIIIIIIIIIIII222222222211111111111111111AAAAAAAAAAAAAAAAAA
IIIIIIIIIIIIIIIIII222222222211111111111111111AAAAAAAAAAAAAAAAAAA
IIIIIIIIIIIIIIIII222222222211111111111111111AAAAAAAAAAAAAAAAAAAA
IIIIIIIIIIIIIIII222222222211111111111111111AAAAAAAAAAAAAAAAAAAAA
IIIIIIIIIIIIIII222222222211111111111111111AAAAAAAAAAAAAAAAAAAAAA
IIIIIIIIIIIIII222222222211111111111111111AAAAAAAAAAAAAAAAAAAAAAA
IIIIIIIIIIIII222222222211111111111111111AAAAAAAAAAAAAAAAAAAAAAAA
IIIIIIIIIIII222222222211111111111111111AAAAAAAAAAAAAAAAAAAAAAAAA
IIIIIIIIIII222222222211111111111111111AAAAAAAAAAAAAAAAAAAAAAAAAA
IIIIIIIIII222222222211111111111111111AAAAAAAAAAAAAAAAAAAAAAAAAAA
IIIIIIIII222222222211111111111111111AAAAAAAAAAAAAAAAAAAAAAAAAAAA
IIIIIIII222222222211111111111111111AAAAAAAAAAAAAAAAAAAAAAAAAAAAA
IIIIIII222222222211111111111111111AAAAAAAAAAAAAAAAAAAAAAAAAAAAAA
IIIIII222222222211111111111111111AAAAAAAAAAAAAAAAAAAAAAAAAAAAAAA
IIIII222222222211111111111111111AAAAAAAAAAAAAAAAAAAAAAAAAAAAAAAA
IIII222222222211111111111111111AAAAAAAAAAAAAAAAAAAAAAAAAAAAAAAAA
III222222222211111111111111111AAAAAAAAAAAAAAAAAAAAAAAAAAAAAAAAAA
II222222222211111111111111111AAAAAAAAAAAAAAAAAAAAAAAAAAAAAAAAAAA
I222222222211111111111111111AAAAAAAAAAAAAAAAAAAAAAAAAAAAAAAAAAAA
222222222211111111111111111AAAAAAAAAAAAAAAAAAAAAAAAAAAAAAAAAAAAA
22222222211111111111111111AAAAAAAAAAAAAAAAAAAAAAAAAAAAAAAAAAAAAA
2222222211111111111111111AAAAAAAAAAAAAAAAAAAAAAAAAAAAAAAAAAAAAAA
222222211111111111111111AAAAAAAAAAAAAAAAAAAAAAAAAAAAAAAAAAAAAAAA
22222211111111111111111AAAAAAAAAAAAAAAAAAAAAAAAAAAAAAAAAAAAAAAAA
2222211111111111111111AAAAAAAAAAAAAAAAAAAAAAAAAAAAAAAAAAAAAAAAAA
222211111111111111111AAAAAAAAAAAAAAAAAAAAAAAAAAAAAAAAAAAAAAAAAAA
22211111111111111111AAAAAAAAAAAAAAAAAAAAAAAAAAAAAAAAAAAAAAAAAAAA
2211111111111111111AAAAAAAAAAAAAAAAAAAAAAAAAAAAAAAAAAAAAAAAAAAAA
221111111111111111AAAAAAAAAAAAAAAAAAAAAAAAAAAAAAAAAAAAAAAAAAAAAA
211111111111111111AAAAAAAAAAAAAAAAAAAAAAAAAAAAAAAAAAAAAAAAAAAAAA
11111111111111111AAAAAAAAAAAAAAAAAAAAAAAAAAAAAAAAAAAAAAAAAAAAAAA
1111111111111111AAAAAAAAAAAAAAAAAAAAAAAAAAAAAAAAAAAAAAAAAAAAAAAA
111111111111111AAAAAAAAAAAAAAAAAAAAAAAAAAAAAAAAAAAAAAAAAAAAAAAAA
11111111111111AAAAAAAAAAAAAAAAAAAAAAAAAAAAAAAAAAAAAAAAAAAAAAAAAA
1111111111111AAAAAAAAAAAAAAAAAAAAAAAAAAAAAAAAAAAAAAAAAAAAAAAAAAA
111111111111AAAAAAAAAAAAAAAAAAAAAAAAAAAAAAAAAAAAAAAAAAAAAAAAAAAA
11111111111AAAAAAAAAAAAAAAAAAAAAAAAAAAAAAAAAAAAAAAAAAAAAAAAAAAAA
1111111111AAAAAAAAAAAAAAAAAAAAAAAAAAAAAAAAAAAAAAAAAAAAAAAAAAAAAA
111111111AAAAAAAAAAAAAAAAAAAAAAAAAAAAAAAAAAAAAAAAAAAAAAAAAAAAAAA
11111111AAAAAAAAAAAAAAAAAAAAAAAAAAAAAAAAAAAAAAAAAAAAAAAAAAAAAAAA
1111111AAAAAAAAAAAAAAAAAAAAAAAAAAAAAAAAAAAAAAAAAAAAAAAAAAAAAAAAA
111111AAAAAAAAAAAAAAAAAAAAAAAAAAAAAAAAAAAAAAAAAAAAAAAAAAAAAAAAAA
11111AAAAAAAAAAAAAAAAAAAAAAAAAAAAAAAAAAAAAAAAAAAAAAAAAAAAAAAAAAA
1111AAAAAAAAAAAAAAAAAAAAAAAAAAAAAAAAAAAAAAAAAAAAAAAAAAAAAAAAAAAA
111AAAAAAAAAAAAAAAAAAAAAAAAAAAAAAAAAAAAAAAAAAAAAAAAAAAAAAAAAAAAA
11AAAAAAAAAAAAAAAAAAAAAAAAAAAAAAAAAAAAAAAAAAAAAAAAAAAAAAAAAAAAAA
1AAAAAAAAAAAAAAAAAAAAAAAAAAAAAAAAAAAAAAAAAAAAAAAAAAAAAAAAAAAAAAA
AAAAAAAAAAAAAAAAAAAAAAAAAAAAAAAAAAAAAAAAAAAAAAAAAAAAAAAAAAAAAAAA
IIIIIIIIIIIIIIIIIIIIIIIIIIIIIIIIIIIIIIIIIIIIIIIIIIIIIIIIIIII1IIA
IIIIIIIIIIIIIIIIIIIIIIIIIIIIIIIIIIII1II1II1IIIIIII1II1IIIIII1IIA
IIIIIIIIIIIIIIIIIIIIIIIIIIIIIIIIIIII1II1II1IIIIIII1II1IIIII11IAA
IIIIIIIIIIIIIIIIIIIIIIIIIIIIIIIIIIII1II1I11IIIIII11I11IIIII11IAA
IIIIIIIIIIIIIIIIIIIIIIIIIIIIIIIIIIII1II1I11IIIIII11I11IIII111AAA
IIIIIIIIIIIIIIIIIIIIIIIIIII1II1III1I11I1111IIIII111111IIII111AAA
IIIIIIIIIIIIIIIIIIIIIIIIII11I11II11I11I1111IIII1111111III111AAAA
IIIIIIIIIIIIIIIIIIIIIIIIII11I11II11I11I1111IIII1111111II111AAAAA
[...]
1AAAAAAAAAAAAAAAAAAAAAAAAAAAAAAAAAAAAAAAAAAAAAAAAAAAAAAAAAAAAAAA
AAAAAAAAAAAAAAAAAAAAAAAAAAAAAAAAAAAAAAAAAAAAAAAAAAAAAAAAAAAAAAAA
IIIIIIIIIIIIIIIIIIIIIIIIIIIIIIIIIIIIIIIIIIIIIIIIIIIIIIIIIIIIIIIA
IIIIIIIIIIIIIIIIIIIIIIIIIIIIIIIII2II2IIIIII1II1IIIIII1IIIIIIIIIA
IIIIIIIIIIIIIIIIIIIIIIIIIIIIIIIII2II2IIIII11I11IIIII11IIIIIIIIAA
IIIIIIIIIIIIIIIIIIIIIIIIIIIIIIII22I22IIIII11I11IIIII11IIIIIIIIAA
IIIIIIIIIIIIIIIIIIIIIIIIIIIIIII222222IIII111111IIII111IIIIIIIAAA
IIIIIIIIIIIIIIIIIIIIIIIIIIIIII2222222III1111111III1111IIIIIIAAAA
IIIIIIIIIIIIIIIIIIIIIIIIIIIII22222222II11111111II11111IIIIIAAAAA
IIIIIIIIIIIIIIIIIIIIIIIIIIIII22222222II11111111II11111IIIIAAAAAA
IIIIIIIIIIIIIIIIIIIIIIIIIIIII22222222I111111111I111111IIIIAAAAAA
IIIIIIIIIIIIIIIIIIIIIIIIIIIII22222222I111111111I111111IIIAAAAAAA
IIIIIIIIIIIIIIIIIIIIIIIIIII2I2222222211111111111111111IIIAAAAAAA
IIIIIIIIIIIIIIIIIIIIIIIIII22I2222222111111111111111111IIAAAAAAAA
IIIIIIIIIIIIIIIIIIIIIIIII22222222221111111111111111111IAAAAAAAAA
IIIIIIIIIIIIIIIIIIIIIIII222222222211111111111111111111AAAAAAAAAA
IIIIIIIIIIIIIIIIIIIIIII222222222211111111111111111111AAAAAAAAAAA
IIIIIIIIIIIIIIIIIIIIII222222222211111111111111111111AAAAAAAAAAAA
IIIIIIIIIIIIIIIIIIIII222222222211111111111111111111AAAAAAAAAAAAA
IIIIIIIIIIIIIIIIIIII222222222211111111111111111111AAAAAAAAAAAAAA
IIIIIIIIIIIIIIIIIII222222222211111111111111111111AAAAAAAAAAAAAAA
IIIIIIIIIIIIIIIIII222222222211111111111111111111AAAAAAAAAAAAAAAA
IIIIIIIIIIIIIIIII222222222211111111111111111111AAAAAAAAAAAAAAAAA
IIIIIIIIIIIIIIII222222222211111111111111111111AAAAAAAAAAAAAAAAAA
IIIIIIIIIIIIIII222222222211111111111111111111AAAAAAAAAAAAAAAAAAA
IIIIIIIIIIIIIII22222222221111111111111111111AAAAAAAAAAAAAAAAAAAA
IIIIIIIIIIIIII222222222211111111111111111111AAAAAAAAAAAAAAAAAAAA
IIIIIIIIIIIII222222222211111111111111111111AAAAAAAAAAAAAAAAAAAAA
IIIIIIIIIIII222222222211111111111111111111AAAAAAAAAAAAAAAAAAAAAA
IIIIIIIIIII222222222211111111111111111111AAAAAAAAAAAAAAAAAAAAAAA
IIIIIIIIII222222222211111111111111111111AAAAAAAAAAAAAAAAAAAAAAAA
IIIIIIIII222222222211111111111111111111AAAAAAAAAAAAAAAAAAAAAAAAA
IIIIIIII222222222211111111111111111111AAAAAAAAAAAAAAAAAAAAAAAAAA
IIIIIII222222222211111111111111111111AAAAAAAAAAAAAAAAAAAAAAAAAAA
IIIIII222222222211111111111111111111AAAAAAAAAAAAAAAAAAAAAAAAAAAA
IIIII222222222211111111111111111111AAAAAAAAAAAAAAAAAAAAAAAAAAAAA
IIII222222222211111111111111111111AAAAAAAAAAAAAAAAAAAAAAAAAAAAAA
III222222222211111111111111111111AAAAAAAAAAAAAAAAAAAAAAAAAAAAAAA
II222222222211111111111111111111AAAAAAAAAAAAAAAAAAAAAAAAAAAAAAAA
I222222222211111111111111111111AAAAAAAAAAAAAAAAAAAAAAAAAAAAAAAAA
222222222211111111111111111111AAAAAAAAAAAAAAAAAAAAAAAAAAAAAAAAAA
22222222211111111111111111111AAAAAAAAAAAAAAAAAAAAAAAAAAAAAAAAAAA
2222222211111111111111111111AAAAAAAAAAAAAAAAAAAAAAAAAAAAAAAAAAAA
222222211111111111111111111AAAAAAAAAAAAAAAAAAAAAAAAAAAAAAAAAAAAA
22222211111111111111111111AAAAAAAAAAAAAAAAAAAAAAAAAAAAAAAAAAAAAA
2222211111111111111111111AAAAAAAAAAAAAAAAAAAAAAAAAAAAAAAAAAAAAAA
222211111111111111111111AAAAAAAAAAAAAAAAAAAAAAAAAAAAAAAAAAAAAAAA
22211111111111111111111AAAAAAAAAAAAAAAAAAAAAAAAAAAAAAAAAAAAAAAAA
2211111111111111111111AAAAAAAAAAAAAAAAAAAAAAAAAAAAAAAAAAAAAAAAAA
211111111111111111111AAAAAAAAAAAAAAAAAAAAAAAAAAAAAAAAAAAAAAAAAAA
11111111111111111111AAAAAAAAAAAAAAAAAAAAAAAAAAAAAAAAAAAAAAAAAAAA
1111111111111111111AAAAAAAAAAAAAAAAAAAAAAAAAAAAAAAAAAAAAAAAAAAAA
111111111111111111AAAAAAAAAAAAAAAAAAAAAAAAAAAAAAAAAAAAAAAAAAAAAA
11111111111111111AAAAAAAAAAAAAAAAAAAAAAAAAAAAAAAAAAAAAAAAAAAAAAA
1111111111111111AAAAAAAAAAAAAAAAAAAAAAAAAAAAAAAAAAAAAAAAAAAAAAAA
111111111111111AAAAAAAAAAAAAAAAAAAAAAAAAAAAAAAAAAAAAAAAAAAAAAAAA
11111111111111AAAAAAAAAAAAAAAAAAAAAAAAAAAAAAAAAAAAAAAAAAAAAAAAAA
1111111111111AAAAAAAAAAAAAAAAAAAAAAAAAAAAAAAAAAAAAAAAAAAAAAAAAAA
111111111111AAAAAAAAAAAAAAAAAAAAAAAAAAAAAAAAAAAAAAAAAAAAAAAAAAAA
11111111111AAAAAAAAAAAAAAAAAAAAAAAAAAAAAAAAAAAAAAAAAAAAAAAAAAAAA
1111111111AAAAAAAAAAAAAAAAAAAAAAAAAAAAAAAAAAAAAAAAAAAAAAAAAAAAAA
111111111AAAAAAAAAAAAAAAAAAAAAAAAAAAAAAAAAAAAAAAAAAAAAAAAAAAAAAA
11111111AAAAAAAAAAAAAAAAAAAAAAAAAAAAAAAAAAAAAAAAAAAAAAAAAAAAAAAA
1111111AAAAAAAAAAAAAAAAAAAAAAAAAAAAAAAAAAAAAAAAAAAAAAAAAAAAAAAAA
111111AAAAAAAAAAAAAAAAAAAAAAAAAAAAAAAAAAAAAAAAAAAAAAAAAAAAAAAAAA
11111AAAAAAAAAAAAAAAAAAAAAAAAAAAAAAAAAAAAAAAAAAAAAAAAAAAAAAAAAAA
1111AAAAAAAAAAAAAAAAAAAAAAAAAAAAAAAAAAAAAAAAAAAAAAAAAAAAAAAAAAAA
111AAAAAAAAAAAAAAAAAAAAAAAAAAAAAAAAAAAAAAAAAAAAAAAAAAAAAAAAAAAAA
11AAAAAAAAAAAAAAAAAAAAAAAAAAAAAAAAAAAAAAAAAAAAAAAAAAAAAAAAAAAAAA
1AAAAAAAAAAAAAAAAAAAAAAAAAAAAAAAAAAAAAAAAAAAAAAAAAAAAAAAAAAAAAAA
AAAAAAAAAAAAAAAAAAAAAAAAAAAAAAAAAAAAAAAAAAAAAAAAAAAAAAAAAAAAAAAA
IIIIIIIIIIIIIIIIIIIIIIIIIIIIIIIIIIIIIIIIIIIIIIIIIIIIIIIIIIIIIIIA
IIIIIIIIIIIIIIIIIIIIIIIIIIIIIIIIIIIIIIIIIIIIIII2IIIIII2II1II1IIA
IIIIIIIIIIIIIIIIIIIIIIIIIIIIIIIIIIIIIIIIIIIIII22IIIII22I11I11IAA
IIIIIIIIIIIIIIIIIIIIIIIIIIIIIIIIIIIIIIIIIIIII222IIII222111111AAA
IIIIIIIIIIIIIIIIIIIIIIIIIIIIIIIIIIIIIIIIIIII2222III222111111AAAA
IIIIIIIIIIIIIIIIIIIIIIIIIIIIIIIIIIIIIIIIIII22222II222111111AAAAA
IIIIIIIIIIIIIIIIIIIIIIIIIIIIIIIIIIIIIIIIIII22222II22111111AAAAAA
IIIIIIIIIIIIIIIIIIIIIIIIIIIIIIIIIIIIIIIIIII22222I222111111AAAAAA
IIIIIIIIIIIIIIIIIIIIIIIIIIIIIIIIIIIIIIIIII222222I222111111AAAAAA
IIIIIIIIIIIIIIIIIIIIIIIIIIIIIIIIIIIIIIIII2222222222111111AAAAAAA
IIIIIIIIIIIIIIIIIIIIIIIIIIIIIIIIIIIIIIII2222222222111111AAAAAAAA
IIIIIIIIIIIIIIIIIIIIIIIIIIIIIIIIIIIIIII2222222222111111AAAAAAAAA
IIIIIIIIIIIIIIIIIIIIIIIIIIIIIIIIIIIIII2222222222111111AAAAAAAAAA
IIIIIIIIIIIIIIIIIIIIIIIIIIIIIIIIIIIII2222222222111111AAAAAAAAAAA
IIIIIIIIIIIIIIIIIIIIIIIIIIIIIIIIIIII2222222222111111AAAAAAAAAAAA
IIIIIIIIIIIIIIIIIIIIIIIIIIIIIIIIIII2222222222111111AAAAAAAAAAAAA
IIIIIIIIIIIIIIIIIIIIIIIIIIIIIIIIII2222222222111111AAAAAAAAAAAAAA
IIIIIIIIIIIIIIIIIIIIIIIIIIIIIIIII2222222222111111AAAAAAAAAAAAAAA
IIIIIIIIIIIIIIIIIIIIIIIIIIIIIIIII222222222211111AAAAAAAAAAAAAAAA
IIIIIIIIIIIIIIIIIIIIIIIIIIIIIIII2222222222111111AAAAAAAAAAAAAAAA
IIIIIIIIIIIIIIIIIIIIIIIIIIIIIIII222222222211111AAAAAAAAAAAAAAAAA
IIIIIIIIIIIIIIIIIIIIIIIIIIIIIII2222222222111111AAAAAAAAAAAAAAAAA
IIIIIIIIIIIIIIIIIIIIIIIIIIIIII2222222222111111AAAAAAAAAAAAAAAAAA
IIIIIIIIIIIIIIIIIIIIIIIIIIIII2222222222111111AAAAAAAAAAAAAAAAAAA
IIIIIIIIIIIIIIIIIIIIIIIIIIII2222222222111111AAAAAAAAAAAAAAAAAAAA
IIIIIIIIIIIIIIIIIIIIIIIIIIII222222222111111AAAAAAAAAAAAAAAAAAAAA
IIIIIIIIIIIIIIIIIIIIIIIIIII2222222222111111AAAAAAAAAAAAAAAAAAAAA
IIIIIIIIIIIIIIIIIIIIIIIIII2222222222111111AAAAAAAAAAAAAAAAAAAAAA
IIIIIIIIIIIIIIIIIIIIIIIII2222222222111111AAAAAAAAAAAAAAAAAAAAAAA
IIIIIIIIIIIIIIIIIIIIIIII2222222222111111AAAAAAAAAAAAAAAAAAAAAAAA
IIIIIIIIIIIIIIIIIIIIIIII222222222211111AAAAAAAAAAAAAAAAAAAAAAAAA
IIIIIIIIIIIIIIIIIIIIIII2222222222111111AAAAAAAAAAAAAAAAAAAAAAAAA
IIIIIIIIIIIIIIIIIIIIII2222222222111111AAAAAAAAAAAAAAAAAAAAAAAAAA
IIIIIIIIIIIIIIIIIIIII2222222222111111AAAAAAAAAAAAAAAAAAAAAAAAAAA
IIIIIIIIIIIIIIIIIIII2222222222111111AAAAAAAAAAAAAAAAAAAAAAAAAAAA
IIIIIIIIIIIIIIIIIII2222222222111111AAAAAAAAAAAAAAAAAAAAAAAAAAAAA
IIIIIIIIIIIIIIIIII2222222222111111AAAAAAAAAAAAAAAAAAAAAAAAAAAAAA
IIIIIIIIIIIIIIIII2222222222111111AAAAAAAAAAAAAAAAAAAAAAAAAAAAAAA
IIIIIIIIIIIIIIII2222222222111111AAAAAAAAAAAAAAAAAAAAAAAAAAAAAAAA
IIIIIIIIIIIIIIII222222222211111AAAAAAAAAAAAAAAAAAAAAAAAAAAAAAAAA
IIIIIIIIIIIIIII2222222222111111AAAAAAAAAAAAAAAAAAAAAAAAAAAAAAAAA
IIIIIIIIIIIIII2222222222111111AAAAAAAAAAAAAAAAAAAAAAAAAAAAAAAAAA
IIIIIIIIIIIII2222222222111111AAAAAAAAAAAAAAAAAAAAAAAAAAAAAAAAAAA
IIIIIIIIIIII2222222222111111AAAAAAAAAAAAAAAAAAAAAAAAAAAAAAAAAAAA
IIIIIIIIIII2222222222111111AAAAAAAAAAAAAAAAAAAAAAAAAAAAAAAAAAAAA
IIIIIIIIII2222222222111111AAAAAAAAAAAAAAAAAAAAAAAAAAAAAAAAAAAAAA
IIIIIIIII2222222222111111AAAAAAAAAAAAAAAAAAAAAAAAAAAAAAAAAAAAAAA
IIIIIIII2222222222111111AAAAAAAAAAAAAAAAAAAAAAAAAAAAAAAAAAAAAAAA
IIIIIIII222222222111111AAAAAAAAAAAAAAAAAAAAAAAAAAAAAAAAAAAAAAAAA
IIIIIII2222222222111111AAAAAAAAAAAAAAAAAAAAAAAAAAAAAAAAAAAAAAAAA
IIIIII2222222222111111AAAAAAAAAAAAAAAAAAAAAAAAAAAAAAAAAAAAAAAAAA
IIIII2222222222111111AAAAAAAAAAAAAAAAAAAAAAAAAAAAAAAAAAAAAAAAAAA
IIII2222222222111111AAAAAAAAAAAAAAAAAAAAAAAAAAAAAAAAAAAAAAAAAAAA
III2222222222111111AAAAAAAAAAAAAAAAAAAAAAAAAAAAAAAAAAAAAAAAAAAAA
II2222222222111111AAAAAAAAAAAAAAAAAAAAAAAAAAAAAAAAAAAAAAAAAAAAAA
I2222222222111111AAAAAAAAAAAAAAAAAAAAAAAAAAAAAAAAAAAAAAAAAAAAAAA
2222222222111111AAAAAAAAAAAAAAAAAAAAAAAAAAAAAAAAAAAAAAAAAAAAAAAA
222222222111111AAAAAAAAAAAAAAAAAAAAAAAAAAAAAAAAAAAAAAAAAAAAAAAAA
22222222111111AAAAAAAAAAAAAAAAAAAAAAAAAAAAAAAAAAAAAAAAAAAAAAAAAA
2222222111111AAAAAAAAAAAAAAAAAAAAAAAAAAAAAAAAAAAAAAAAAAAAAAAAAAA
222222111111AAAAAAAAAAAAAAAAAAAAAAAAAAAAAAAAAAAAAAAAAAAAAAAAAAAA
22222111111AAAAAAAAAAAAAAAAAAAAAAAAAAAAAAAAAAAAAAAAAAAAAAAAAAAAA
2222111111AAAAAAAAAAAAAAAAAAAAAAAAAAAAAAAAAAAAAAAAAAAAAAAAAAAAAA
222111111AAAAAAAAAAAAAAAAAAAAAAAAAAAAAAAAAAAAAAAAAAAAAAAAAAAAAAA
22111111AAAAAAAAAAAAAAAAAAAAAAAAAAAAAAAAAAAAAAAAAAAAAAAAAAAAAAAA
2111111AAAAAAAAAAAAAAAAAAAAAAAAAAAAAAAAAAAAAAAAAAAAAAAAAAAAAAAAA
111111AAAAAAAAAAAAAAAAAAAAAAAAAAAAAAAAAAAAAAAAAAAAAAAAAAAAAAAAAA
11111AAAAAAAAAAAAAAAAAAAAAAAAAAAAAAAAAAAAAAAAAAAAAAAAAAAAAAAAAAA
1111AAAAAAAAAAAAAAAAAAAAAAAAAAAAAAAAAAAAAAAAAAAAAAAAAAAAAAAAAAAA
111AAAAAAAAAAAAAAAAAAAAAAAAAAAAAAAAAAAAAAAAAAAAAAAAAAAAAAAAAAAAA
11AAAAAAAAAAAAAAAAAAAAAAAAAAAAAAAAAAAAAAAAAAAAAAAAAAAAAAAAAAAAAA
1AAAAAAAAAAAAAAAAAAAAAAAAAAAAAAAAAAAAAAAAAAAAAAAAAAAAAAAAAAAAAAA
AAAAAAAAAAAAAAAAAAAAAAAAAAAAAAAAAAAAAAAAAAAAAAAAAAAAAAAAAAAAAAAA
IIIIIIIIIIIIIIIIIIIIIIIIIIIII2IIIIII2IIIIII1II1IIIIII1IIIIIIIIIA
IIIIIIIIIIIIIIIIIIIIIIIIIIII22IIIII22IIIII11I11IIIII11IIIIIIIIAA
IIIIIIIIIIIIIIIIIIIIIIIIIII222IIII222IIII111111IIII111IIIIIIIAAA
IIIIIIIIIIIIIIIIIIIIIIIIII2222III2222III1111111III1111IIIIIIAAAA
IIIIIIIIIIIIIIIIIIIIIIIII22222II22222II11111111II11111IIIIIAAAAA
IIIIIIIIIIIIIIIIIIIIIIIII22222II22222I111111111I111111IIIIAAAAAA
IIIIIIIIIIIIIIIIIIIIIIII222222I222222I111111111I111111IIIIAAAAAA
IIIIIIIIIIIIIIIIIIIIIII2222222222222211111111111111111IIIAAAAAAA
IIIIIIIIIIIIIIIIIIIIII22222222222222111111111111111111IIAAAAAAAA
IIIIIIIIIIIIIIIIIIIII222222222222221111111111111111111IAAAAAAAAA
IIIIIIIIIIIIIIIIIIII2222222222222211111111111111111111AAAAAAAAAA
IIIIIIIIIIIIIIIIIII2222222222222211111111111111111111AAAAAAAAAAA
IIIIIIIIIIIIIIIIII2222222222222211111111111111111111AAAAAAAAAAAA
IIIIIIIIIIIIIIIII2222222222222211111111111111111111AAAAAAAAAAAAA
IIIIIIIIIIIIIIII2222222222222211111111111111111111AAAAAAAAAAAAAA
IIIIIIIIIIIIIII2222222222222211111111111111111111AAAAAAAAAAAAAAA
IIIIIIIIIIIIII2222222222222211111111111111111111AAAAAAAAAAAAAAAA
IIIIIIIIIIIII2222222222222211111111111111111111AAAAAAAAAAAAAAAAA
IIIIIIIIIIII2222222222222211111111111111111111AAAAAAAAAAAAAAAAAA
IIIIIIIIIII2222222222222211111111111111111111AAAAAAAAAAAAAAAAAAA
IIIIIIIIIII222222222222221111111111111111111AAAAAAAAAAAAAAAAAAAA
IIIIIIIIIII22222222222212111111111111111111AAAAAAAAAAAAAAAAAAAAA
IIIIIIIII2I22222222222212111111111111111111AAAAAAAAAAAAAAAAAAAAA
IIIIIIII22I2222222222211211111111111111111AAAAAAAAAAAAAAAAAAAAAA
IIIIIII222I222222222211111111111111111111AAAAAAAAAAAAAAAAAAAAAAA
IIIIIII222I22222222221111111111111111111AAAAAAAAAAAAAAAAAAAAAAAA
IIIIII2222I22222222211111111111111111111AAAAAAAAAAAAAAAAAAAAAAAA
IIIII22222I2222222211111111111111111111AAAAAAAAAAAAAAAAAAAAAAAAA
IIII222222I222222211111111111111111111AAAAAAAAAAAAAAAAAAAAAAAAAA
III2222222222222211111111111111111111AAAAAAAAAAAAAAAAAAAAAAAAAAA
II2222222222222211111111111111111111AAAAAAAAAAAAAAAAAAAAAAAAAAAA
I2222222222222211111111111111111111AAAAAAAAAAAAAAAAAAAAAAAAAAAAA
2222222222222211111111111111111111AAAAAAAAAAAAAAAAAAAAAAAAAAAAAA
222222222222211111111111111111111AAAAAAAAAAAAAAAAAAAAAAAAAAAAAAA
22222222222211111111111111111111AAAAAAAAAAAAAAAAAAAAAAAAAAAAAAAA
2222222222211111111111111111111AAAAAAAAAAAAAAAAAAAAAAAAAAAAAAAAA
222222222211111111111111111111AAAAAAAAAAAAAAAAAAAAAAAAAAAAAAAAAA
22222222211111111111111111111AAAAAAAAAAAAAAAAAAAAAAAAAAAAAAAAAAA
2222222211111111111111111111AAAAAAAAAAAAAAAAAAAAAAAAAAAAAAAAAAAA
222222211111111111111111111AAAAAAAAAAAAAAAAAAAAAAAAAAAAAAAAAAAAA
22222211111111111111111111AAAAAAAAAAAAAAAAAAAAAAAAAAAAAAAAAAAAAA
2222211111111111111111111AAAAAAAAAAAAAAAAAAAAAAAAAAAAAAAAAAAAAAA
222221111111111111111111AAAAAAAAAAAAAAAAAAAAAAAAAAAAAAAAAAAAAAAA
22222111111111111111111AAAAAAAAAAAAAAAAAAAAAAAAAAAAAAAAAAAAAAAAA
2222211111111111111111AAAAAAAAAAAAAAAAAAAAAAAAAAAAAAAAAAAAAAAAAA
222221111111111111111AAAAAAAAAAAAAAAAAAAAAAAAAAAAAAAAAAAAAAAAAAA
22222111111111111111AAAAAAAAAAAAAAAAAAAAAAAAAAAAAAAAAAAAAAAAAAAA
2222211111111111111AAAAAAAAAAAAAAAAAAAAAAAAAAAAAAAAAAAAAAAAAAAAA
222221111111111111AAAAAAAAAAAAAAAAAAAAAAAAAAAAAAAAAAAAAAAAAAAAAA
22222111111111111AAAAAAAAAAAAAAAAAAAAAAAAAAAAAAAAAAAAAAAAAAAAAAA
2222211111111111AAAAAAAAAAAAAAAAAAAAAAAAAAAAAAAAAAAAAAAAAAAAAAAA
222221111111111AAAAAAAAAAAAAAAAAAAAAAAAAAAAAAAAAAAAAAAAAAAAAAAAA
22222111111111AAAAAAAAAAAAAAAAAAAAAAAAAAAAAAAAAAAAAAAAAAAAAAAAAA
2222211111111AAAAAAAAAAAAAAAAAAAAAAAAAAAAAAAAAAAAAAAAAAAAAAAAAAA
222221111111AAAAAAAAAAAAAAAAAAAAAAAAAAAAAAAAAAAAAAAAAAAAAAAAAAAA
22222111111AAAAAAAAAAAAAAAAAAAAAAAAAAAAAAAAAAAAAAAAAAAAAAAAAAAAA
2222211111AAAAAAAAAAAAAAAAAAAAAAAAAAAAAAAAAAAAAAAAAAAAAAAAAAAAAA
222221111AAAAAAAAAAAAAAAAAAAAAAAAAAAAAAAAAAAAAAAAAAAAAAAAAAAAAAA
22222111AAAAAAAAAAAAAAAAAAAAAAAAAAAAAAAAAAAAAAAAAAAAAAAAAAAAAAAA
2222111AAAAAAAAAAAAAAAAAAAAAAAAAAAAAAAAAAAAAAAAAAAAAAAAAAAAAAAAA
222111AAAAAAAAAAAAAAAAAAAAAAAAAAAAAAAAAAAAAAAAAAAAAAAAAAAAAAAAAA
22111AAAAAAAAAAAAAAAAAAAAAAAAAAAAAAAAAAAAAAAAAAAAAAAAAAAAAAAAAAA
2111AAAAAAAAAAAAAAAAAAAAAAAAAAAAAAAAAAAAAAAAAAAAAAAAAAAAAAAAAAAA
111AAAAAAAAAAAAAAAAAAAAAAAAAAAAAAAAAAAAAAAAAAAAAAAAAAAAAAAAAAAAA
11AAAAAAAAAAAAAAAAAAAAAAAAAAAAAAAAAAAAAAAAAAAAAAAAAAAAAAAAAAAAAA
1AAAAAAAAAAAAAAAAAAAAAAAAAAAAAAAAAAAAAAAAAAAAAAAAAAAAAAAAAAAAAAA
AAAAAAAAAAAAAAAAAAAAAAAAAAAAAAAAAAAAAAAAAAAAAAAAAAAAAAAAAAAAAAAA
IIIIIIIIIIIIIIIIIIIIIIIIIIIIIIIIIIIIIIIIIIIIIII2II1II1IIIIII1IIA
IIIIIIIIIIIIIIIIIIIIIIIIIIIIIIIIIIIIIIII2IIIIII2II1II1IIIIII1IIA
IIIIIIIIIIIIIIIIIIIIIIIIIIIIIIIIIIIIIIII2IIIII22I11I11IIIII11IAA
IIIIIIIIIIIIIIIIIIIIIIIIIIIIIIIIIIIIIII22IIIII22I11I11IIIII11IAA
IIIIIIIIIIIIIIIIIIIIIIIIIIIIIIIIIIIIII222IIII222111111IIII111AAA
IIIIIIIIIIIIIIIIIIIIIIIIIIIIIIIIIIIII2222III2221111111III111AAAA
IIIIIIIIIIIIIIIIIIIIIIIIIIIIIIIIIIIII2222III2221111111III11AAAAA
IIIIIIIIIIIIIIIIIIIIIIIIIIIIIIIIIIIII2222III2221111111II111AAAAA
IIIIIIIIIIIIIIIIIIIIIIIIIIIIIIIIIIII22222II22211111111II111AAAAA
IIIIIIIIIIIIIIIIIIIIIIIIIIIIIIIIIII222222I222111111111I111AAAAAA
IIIIIIIIIIIIIIIIIIIIIIIIIIIIIIIIII22222222221111111111111AAAAAAA
IIIIIIIIIIIIIIIIIIIIIIIIIIIIIIIIII2222222221111111111111AAAAAAAA
IIIIIIIIIIIIIIIIIIIIIIIIIIIIIIIII22222222221111111111111AAAAAAAA
IIIIIIIIIIIIIIIIIIIIIIIIIIIIIIIII2222222221111111111111AAAAAAAAA
IIIIIIIIIIIIIIIIIIIIIIIIIIIIIIII22222222221111111111111AAAAAAAAA
IIIIIIIIIIIIIIIIIIIIIIIIIIIIIII22222222221111111111111AAAAAAAAAA
IIIIIIIIIIIIIIIIIIIIIIIIIIIIII22222222221111111111111AAAAAAAAAAA
IIIIIIIIIIIIIIIIIIIIIIIIIIIII22222222221111111111111AAAAAAAAAAAA
IIIIIIIIIIIIIIIIIIIIIIIIIIII22222222221111111111111AAAAAAAAAAAAA
IIIIIIIIIIIIIIIIIIIIIIIIIII22222222221111111111111AAAAAAAAAAAAAA
IIIIIIIIIIIIIIIIIIIIIIIIII22222222221111111111111AAAAAAAAAAAAAAA
IIIIIIIIIIIIIIIIIIIIIIIII22222222221111111111111AAAAAAAAAAAAAAAA
IIIIIIIIIIIIIIIIIIII2II2I2222222222111111111111AAAAAAAAAAAAAAAAA
IIIIIIIIIIIIIIIIIII22I22I222222222211111111111AAAAAAAAAAAAAAAAAA
IIIIIIIIIIIIIIIIII222222I22222222221111111111AAAAAAAAAAAAAAAAAAA
IIIIIIIIIIIIIIIIII222222I2222222222111111111AAAAAAAAAAAAAAAAAAAA
IIIIIIIIIIIIIIII2I222222I222222222211111111AAAAAAAAAAAAAAAAAAAAA
IIIIIIIIIIIIIII22I222222I22222222221111111AAAAAAAAAAAAAAAAAAAAAA
IIIIIIIIIIIIII222222222222222222221111111AAAAAAAAAAAAAAAAAAAAAAA
IIIIIIIIIIIII222222222222222222221111111AAAAAAAAAAAAAAAAAAAAAAAA
IIIIIIIIIIII222222222222222222221111111AAAAAAAAAAAAAAAAAAAAAAAAA
IIIIIIIIIII222222222222222222221111111AAAAAAAAAAAAAAAAAAAAAAAAAA
IIIIIIIIII222222222222222222221111111AAAAAAAAAAAAAAAAAAAAAAAAAAA
IIIIIIIIII22222222222222222222111111AAAAAAAAAAAAAAAAAAAAAAAAAAAA
IIIIIIIII222222222222222222221111111AAAAAAAAAAAAAAAAAAAAAAAAAAAA
IIIIIIII222222222222222222221111111AAAAAAAAAAAAAAAAAAAAAAAAAAAAA
IIIIIII222222222222222222221111111AAAAAAAAAAAAAAAAAAAAAAAAAAAAAA
IIIIII222222222222222222221111111AAAAAAAAAAAAAAAAAAAAAAAAAAAAAAA
IIIII222222222222222222221111111AAAAAAAAAAAAAAAAAAAAAAAAAAAAAAAA
IIII222222222222222222221111111AAAAAAAAAAAAAAAAAAAAAAAAAAAAAAAAA
III222222222222222222221111111AAAAAAAAAAAAAAAAAAAAAAAAAAAAAAAAAA
II222222222222222222221111111AAAAAAAAAAAAAAAAAAAAAAAAAAAAAAAAAAA
I222222222222222222221111111AAAAAAAAAAAAAAAAAAAAAAAAAAAAAAAAAAAA
222222222222222222221111111AAAAAAAAAAAAAAAAAAAAAAAAAAAAAAAAAAAAA
22222222222222222221111111AAAAAAAAAAAAAAAAAAAAAAAAAAAAAAAAAAAAAA
2222222222222222221111111AAAAAAAAAAAAAAAAAAAAAAAAAAAAAAAAAAAAAAA
222222222222222221111111AAAAAAAAAAAAAAAAAAAAAAAAAAAAAAAAAAAAAAAA
22222222222222221111111AAAAAAAAAAAAAAAAAAAAAAAAAAAAAAAAAAAAAAAAA
2222222222222221111111AAAAAAAAAAAAAAAAAAAAAAAAAAAAAAAAAAAAAAAAAA
222222222222221111111AAAAAAAAAAAAAAAAAAAAAAAAAAAAAAAAAAAAAAAAAAA
22222222222221111111AAAAAAAAAAAAAAAAAAAAAAAAAAAAAAAAAAAAAAAAAAAA
2222222222221111111AAAAAAAAAAAAAAAAAAAAAAAAAAAAAAAAAAAAAAAAAAAAA
222222222221111111AAAAAAAAAAAAAAAAAAAAAAAAAAAAAAAAAAAAAAAAAAAAAA
22222222221111111AAAAAAAAAAAAAAAAAAAAAAAAAAAAAAAAAAAAAAAAAAAAAAA
2222222221111111AAAAAAAAAAAAAAAAAAAAAAAAAAAAAAAAAAAAAAAAAAAAAAAA
222222221111111AAAAAAAAAAAAAAAAAAAAAAAAAAAAAAAAAAAAAAAAAAAAAAAAA
22222221111111AAAAAAAAAAAAAAAAAAAAAAAAAAAAAAAAAAAAAAAAAAAAAAAAAA
2222221111111AAAAAAAAAAAAAAAAAAAAAAAAAAAAAAAAAAAAAAAAAAAAAAAAAAA
222221111111AAAAAAAAAAAAAAAAAAAAAAAAAAAAAAAAAAAAAAAAAAAAAAAAAAAA
22221111111AAAAAAAAAAAAAAAAAAAAAAAAAAAAAAAAAAAAAAAAAAAAAAAAAAAAA
2221111111AAAAAAAAAAAAAAAAAAAAAAAAAAAAAAAAAAAAAAAAAAAAAAAAAAAAAA
221111111AAAAAAAAAAAAAAAAAAAAAAAAAAAAAAAAAAAAAAAAAAAAAAAAAAAAAAA
21111111AAAAAAAAAAAAAAAAAAAAAAAAAAAAAAAAAAAAAAAAAAAAAAAAAAAAAAAA
1111111AAAAAAAAAAAAAAAAAAAAAAAAAAAAAAAAAAAAAAAAAAAAAAAAAAAAAAAAA
111111AAAAAAAAAAAAAAAAAAAAAAAAAAAAAAAAAAAAAAAAAAAAAAAAAAAAAAAAAA
11111AAAAAAAAAAAAAAAAAAAAAAAAAAAAAAAAAAAAAAAAAAAAAAAAAAAAAAAAAAA
1111AAAAAAAAAAAAAAAAAAAAAAAAAAAAAAAAAAAAAAAAAAAAAAAAAAAAAAAAAAAA
111AAAAAAAAAAAAAAAAAAAAAAAAAAAAAAAAAAAAAAAAAAAAAAAAAAAAAAAAAAAAA
11AAAAAAAAAAAAAAAAAAAAAAAAAAAAAAAAAAAAAAAAAAAAAAAAAAAAAAAAAAAAAA
1AAAAAAAAAAAAAAAAAAAAAAAAAAAAAAAAAAAAAAAAAAAAAAAAAAAAAAAAAAAAAAA
AAAAAAAAAAAAAAAAAAAAAAAAAAAAAAAAAAAAAAAAAAAAAAAAAAAAAAAAAAAAAAAA
[MLOP] Prefetch Degree Mean: 4.03312
[MLOP] Prefetch Degree SD: 1.91483
[MLOP] Max Score Left Mean (%): 23.0208
[MLOP] Max Score Left SD (%): 13.1645
[MLOP] Max Score Right Mean (%): 66.1785
[MLOP] Max Score Right SD (%): 10.7478

DRAM Statistics
 CHANNEL 0
 RQ ROW_BUFFER_HIT:    3049409  ROW_BUFFER_MISS:    1207683
 DBUS_CONGESTED:       4153
 WQ ROW_BUFFER_HIT:      67079  ROW_BUFFER_MISS:     124119  FULL:          0

 AVG_CONGESTED_CYCLE: 5
 All warmup complete: 2
Channel 0 Bank busy for read cycles: 0
Channel 0 Bank busy for write cycles: 0
Channel 0
Rank 0
0banks busy for read cycles: 17999211
0banks busy for write cycles: 9043
1banks busy for read cycles: 24247823
1banks busy for write cycles: 2041468
2banks busy for read cycles: 19339326
2banks busy for write cycles: 1151258
3banks busy for read cycles: 14874070
3banks busy for write cycles: 849222
4banks busy for read cycles: 11937610
4banks busy for write cycles: 708459
5banks busy for read cycles: 10088491
5banks busy for write cycles: 672347
6banks busy for read cycles: 8370299
6banks busy for write cycles: 706925
7banks busy for read cycles: 6303272
7banks busy for write cycles: 1159266
8banks busy for read cycles: 4261526
8banks busy for write cycles: 5290033

CPU 0 Branch Prediction Accuracy: 97.6795% MPKI: 4.20592 Average ROB Occupancy at Mispredict: 48.2779
Branch types
NOT_BRANCH: 40937297 81.8746%
BRANCH_DIRECT_JUMP: 2039126 4.07825%
BRANCH_INDIRECT: 0 0%
BRANCH_CONDITIONAL: 7022760 14.0455%
BRANCH_DIRECT_CALL: 392 0.000784%
BRANCH_INDIRECT_CALL: 0 0%
BRANCH_RETURN: 392 0.000784%
BRANCH_OTHER: 0 0%

DRAM PAGES: 1048576
Allocated PAGES: 9879
