
*** ChampSim Multicore Out-of-Order Simulator ***

Warmup Instructions: 50000000
Simulation Instructions: 50000000
Number of CPUs: 1
LLC sets: 2048
LLC ways: 16
Off-chip DRAM Size: 4096 MB Channels: 1 Width: 64-bit Data Rate: 6400 MT/s
CPU 0 runs ./tracer/traces/605.mcf_s-484B.champsimtrace.xz
.xz
CPU 0 Bimodal branch predictor
BTB has LRU replacement policy
ITLB has LRU replacement policy
DTLB has LRU replacement policy
STLB has LRU replacement policy
L1I has LRU replacement policy
L1D has LRU replacement policy
Bingo PHT WAYS: 16 and PHT_SIZE: 16384
Initialize SRRIP state for L2C
Initialize DRRIP state for LLC
Heartbeat CPU 0 instructions: 10000001 cycles: 3161731 heartbeat IPC: 3.16282 cumulative IPC: 3.16282 (Simulation time: 0 hr 0 min 55 sec) 
Heartbeat CPU 0 instructions: 20000000 cycles: 6359560 heartbeat IPC: 3.12712 cumulative IPC: 3.14487 (Simulation time: 0 hr 1 min 53 sec) 
Heartbeat CPU 0 instructions: 30000001 cycles: 9535923 heartbeat IPC: 3.14826 cumulative IPC: 3.146 (Simulation time: 0 hr 2 min 52 sec) 
Heartbeat CPU 0 instructions: 40000000 cycles: 12684957 heartbeat IPC: 3.17558 cumulative IPC: 3.15334 (Simulation time: 0 hr 3 min 50 sec) 
Heartbeat CPU 0 instructions: 50000000 cycles: 15867741 heartbeat IPC: 3.1419 cumulative IPC: 3.15105 (Simulation time: 0 hr 4 min 51 sec) 

Warmup complete CPU 0 instructions: 50000004 cycles: 15867742 (Simulation time: 0 hr 4 min 51 sec) 

Heartbeat CPU 0 instructions: 60000003 cycles: 35196360 heartbeat IPC: 0.517368 cumulative IPC: 0.517367 (Simulation time: 0 hr 6 min 42 sec) 
Heartbeat CPU 0 instructions: 70000002 cycles: 57690767 heartbeat IPC: 0.444555 cumulative IPC: 0.478205 (Simulation time: 0 hr 8 min 27 sec) 
Heartbeat CPU 0 instructions: 80000000 cycles: 82448774 heartbeat IPC: 0.40391 cumulative IPC: 0.450579 (Simulation time: 0 hr 9 min 42 sec) 
Heartbeat CPU 0 instructions: 90000000 cycles: 103472967 heartbeat IPC: 0.475643 cumulative IPC: 0.456594 (Simulation time: 0 hr 10 min 51 sec) 
Heartbeat CPU 0 instructions: 100000000 cycles: 122664618 heartbeat IPC: 0.52106 cumulative IPC: 0.468178 (Simulation time: 0 hr 11 min 52 sec) 
Finished CPU 0 instructions: 50000002 cycles: 106796894 cumulative IPC: 0.468178 (Simulation time: 0 hr 11 min 52 sec) 

ChampSim completed all CPUs

Region of Interest Statistics

CPU 0 cumulative IPC: 0.468178 instructions: 50000002 cycles: 106796894
ITLB TOTAL     ACCESS:    7736245  HIT:    7736245  MISS:          0  HIT %:        100  MISS %:          0   MPKI: 0
ITLB LOAD TRANSLATION ACCESS:    7736245  HIT:    7736245  MISS:          0  HIT %:        100  MISS %:          0   MPKI: 0
ITLB PREFETCH  REQUESTED:          0  ISSUED:          0  USEFUL:          0  USELESS:          0
ITLB USEFUL LOAD PREFETCHES:          0 PREFETCH ISSUED TO LOWER LEVEL:          0  ACCURACY: -nan
ITLB TIMELY PREFETCHES:          0 LATE PREFETCHES: 0 DROPPED PREFETCHES: 0
ITLB PREFETCHES SAME FILL-ORIGIN LEVEL: 0 DIFFERENT FILL-ORIGIN LEVEL: 0
ITLB AVERAGE MISS LATENCY: -nan cycles
ITLB RQ	ACCESS:   10477520	FORWARD:          0	MERGED:    2741275	TO_CACHE:    7736245

DTLB TOTAL     ACCESS:   13399917  HIT:   13277006  MISS:     122911  HIT %:    99.0827  MISS %:   0.917252   MPKI: 2.45822
DTLB LOAD TRANSLATION ACCESS:   13399917  HIT:   13277006  MISS:     122911  HIT %:    99.0827  MISS %:   0.917252   MPKI: 2.45822
DTLB PREFETCH  REQUESTED:          0  ISSUED:          0  USEFUL:          0  USELESS:          0
DTLB USEFUL LOAD PREFETCHES:          0 PREFETCH ISSUED TO LOWER LEVEL:          0  ACCURACY: -nan
DTLB TIMELY PREFETCHES:          0 LATE PREFETCHES: 0 DROPPED PREFETCHES: 0
DTLB PREFETCHES SAME FILL-ORIGIN LEVEL: 0 DIFFERENT FILL-ORIGIN LEVEL: 0
DTLB AVERAGE MISS LATENCY: 38.7804 cycles
DTLB RQ	ACCESS:   23394701	FORWARD:          0	MERGED:    9977206	TO_CACHE:   13417495

STLB TOTAL     ACCESS:     122911  HIT:      79579  MISS:      43332  HIT %:    64.7452  MISS %:    35.2548   MPKI: 0.86664
STLB LOAD TRANSLATION ACCESS:     122911  HIT:      79579  MISS:      43332  HIT %:    64.7452  MISS %:    35.2548   MPKI: 0.86664
STLB PREFETCH  REQUESTED:          0  ISSUED:          0  USEFUL:          0  USELESS:          0
STLB USEFUL LOAD PREFETCHES:          0 PREFETCH ISSUED TO LOWER LEVEL:          0  ACCURACY: -nan
STLB TIMELY PREFETCHES:          0 LATE PREFETCHES: 0 DROPPED PREFETCHES: 0
STLB PREFETCHES SAME FILL-ORIGIN LEVEL: 0 DIFFERENT FILL-ORIGIN LEVEL: 0
STLB AVERAGE MISS LATENCY: 84.4412 cycles
STLB RQ	ACCESS:     122911	FORWARD:          0	MERGED:          0	TO_CACHE:     122911

STLB Hit, L1D data hit: 0
STLB Hit, L2C data hit: 0
STLB Hit, LLC data hit: 0
STLB Hit, LLC data miss: 0
STLB STLB hints to L2: 0
L1D TOTAL     ACCESS:   22900374  HIT:   21384633  MISS:    1515741  HIT %:    93.3812  MISS %:    6.61885   MPKI: 30.3148
L1D LOAD      ACCESS:    9296842  HIT:    7918448  MISS:    1378394  HIT %:    85.1735  MISS %:    14.8265   MPKI: 27.5679
L1D RFO       ACCESS:   13603532  HIT:   13466185  MISS:     137347  HIT %:    98.9904  MISS %:    1.00964   MPKI: 2.74694
L1D PREFETCH  REQUESTED:          0  ISSUED:          0  USEFUL:          0  USELESS:          0
L1D USEFUL LOAD PREFETCHES:          0 PREFETCH ISSUED TO LOWER LEVEL:          0  ACCURACY: -nan
L1D TIMELY PREFETCHES:          0 LATE PREFETCHES: 0 DROPPED PREFETCHES: 0
L1D PREFETCHES SAME FILL-ORIGIN LEVEL: 0 DIFFERENT FILL-ORIGIN LEVEL: 0
L1D AVERAGE MISS LATENCY: 65.1987 cycles
L1D RQ	ACCESS:   15839766	FORWARD:          0	MERGED:    6509944	TO_CACHE:    9323239
L1D WQ	ACCESS:   14166007	FORWARD:       6583	MERGED:      94545	TO_CACHE:   14071462

L1D UNIQUE REGIONS ACCESSED: 0
L1D REGIONS CONFLICTS: 0
L1D Cross Page Prefetch Requests: 0
L1D Same Page Prefetch Requests: 0
L1D ROI Sum of L1D PQ occupancy: 0
L1D PREFETCHES PUSHED FROM L2C: 0
L1I TOTAL     ACCESS:   10477519  HIT:   10477519  MISS:          0  HIT %:        100  MISS %:          0   MPKI: 0
L1I LOAD      ACCESS:   10477519  HIT:   10477519  MISS:          0  HIT %:        100  MISS %:          0   MPKI: 0
L1I PREFETCH  REQUESTED:          0  ISSUED:          0  USEFUL:          0  USELESS:          0
L1I USEFUL LOAD PREFETCHES:          0 PREFETCH ISSUED TO LOWER LEVEL:          0  ACCURACY: -nan
L1I TIMELY PREFETCHES:          0 LATE PREFETCHES: 0 DROPPED PREFETCHES: 0
L1I PREFETCHES SAME FILL-ORIGIN LEVEL: 0 DIFFERENT FILL-ORIGIN LEVEL: 0
L1I AVERAGE MISS LATENCY: -nan cycles
L1I RQ	ACCESS:   13890101	FORWARD:          0	MERGED:    3412581	TO_CACHE:   10477520

BTB TOTAL     ACCESS:    4939322  HIT:    4939288  MISS:         34  HIT %:    99.9993  MISS %: 0.000688354   MPKI: 0.00068
BTB BRANCH_DIRECT_JUMP	ACCESS:     263981  HIT:     263975  MISS:          6
BTB BRANCH_INDIRECT	ACCESS:          0  HIT:          0  MISS:          0
BTB BRANCH_CONDITIONAL	ACCESS:    4675289  HIT:    4675265  MISS:         24
BTB BRANCH_DIRECT_CALL	ACCESS:         26  HIT:         24  MISS:          2
BTB BRANCH_INDIRECT_CALL	ACCESS:          0  HIT:          0  MISS:          0
BTB BRANCH_RETURN	ACCESS:         26  HIT:         24  MISS:          2
BTB BRANCH_OTHER ACCESS:           0  HIT:          0  MISS:          0

L2C TOTAL     ACCESS:    3542929  HIT:    1515178  MISS:    2027751  HIT %:    42.7663  MISS %:    57.2337   MPKI: 40.555
L2C LOAD      ACCESS:    1378390  HIT:    1070236  MISS:     308154  HIT %:    77.6439  MISS %:    22.3561   MPKI: 6.16308
L2C DATA LOAD MPKI: 6.16308
L2C INSTRUCTION LOAD MPKI: 0
L2C RFO       ACCESS:     137346  HIT:      11572  MISS:     125774  HIT %:    8.42544  MISS %:    91.5746   MPKI: 2.51548
L2C PREFETCH  ACCESS:    1631423  HIT:      53212  MISS:    1578211  HIT %:    3.26169  MISS %:    96.7383   MPKI: 31.5642
AGUS PREFETCH L1 MISS: 0
L2C DATA PREFETCH MPKI: 31.5642
L2C INSTRUCTION PREFETCH MPKI: 0
L2C WRITEBACK ACCESS:     352350  HIT:     343240  MISS:       9110  HIT %:    97.4145  MISS %:     2.5855   MPKI: 0.1822
L2C LOAD TRANSLATION ACCESS:      43420  HIT:      36918  MISS:       6502  HIT %:    85.0253  MISS %:    14.9747   MPKI: 0.13004
L2C PREFETCH  REQUESTED:    1774061  ISSUED:    1774061  USEFUL:    1056790  USELESS:     521766
L2C USEFUL LOAD PREFETCHES:    1056790 PREFETCH ISSUED TO LOWER LEVEL:    1699466  ACCURACY: 62.1837
L2C TIMELY PREFETCHES:    1056790 LATE PREFETCHES: 121255 DROPPED PREFETCHES: 0
L2C PREFETCHES SAME FILL-ORIGIN LEVEL: 1699466 DIFFERENT FILL-ORIGIN LEVEL: 0
L2C AVERAGE MISS LATENCY: 187.58 cycles
L2C RQ	ACCESS:    1559162	FORWARD:          0	MERGED:          0	TO_CACHE:    1559157
L2C WQ	ACCESS:     352350	FORWARD:          7	MERGED:          0	TO_CACHE:     352350
L2C PQ	ACCESS:    1774061	FORWARD:          0	MERGED:          0	TO_CACHE:    1774059

L2C Instructions Evicting Data 0
L2C Translations Evicting Data 6484
L2C Data Evicting Data 2005701
L2C Instructions Evicting Instructions 0
L2C Translations Evicting Instructions 0
L2C Data Evicting Instructions 0
L2C Instructions Evicting Translations 0
L2C Translations Evicting Translations 18
L2C Data Evicting Translations 6438
L2C Dense regions hint from L2: 0
PSCL5 TOTAL     ACCESS:      43332  HIT:      43332  MISS:          0  HIT %:        100  MISS %:          0   MPKI: 0
PSCL5 LOAD TRANSLATION ACCESS:      43332  HIT:      43332  MISS:          0  HIT %:        100  MISS %:          0   MPKI: 0
PSCL5 PREFETCH  REQUESTED:          0  ISSUED:          0  USEFUL:          0  USELESS:          0
PSCL5 USEFUL LOAD PREFETCHES:          0 PREFETCH ISSUED TO LOWER LEVEL:          0  ACCURACY: -nan
PSCL5 TIMELY PREFETCHES:          0 LATE PREFETCHES: 0 DROPPED PREFETCHES: 0
PSCL5 PREFETCHES SAME FILL-ORIGIN LEVEL: 0 DIFFERENT FILL-ORIGIN LEVEL: 0

PSCL4 TOTAL     ACCESS:      43332  HIT:      43332  MISS:          0  HIT %:        100  MISS %:          0   MPKI: 0
PSCL4 LOAD TRANSLATION ACCESS:      43332  HIT:      43332  MISS:          0  HIT %:        100  MISS %:          0   MPKI: 0
PSCL4 PREFETCH  REQUESTED:          0  ISSUED:          0  USEFUL:          0  USELESS:          0
PSCL4 USEFUL LOAD PREFETCHES:          0 PREFETCH ISSUED TO LOWER LEVEL:          0  ACCURACY: -nan
PSCL4 TIMELY PREFETCHES:          0 LATE PREFETCHES: 0 DROPPED PREFETCHES: 0
PSCL4 PREFETCHES SAME FILL-ORIGIN LEVEL: 0 DIFFERENT FILL-ORIGIN LEVEL: 0

PSCL3 TOTAL     ACCESS:      43332  HIT:      43332  MISS:          0  HIT %:        100  MISS %:          0   MPKI: 0
PSCL3 LOAD TRANSLATION ACCESS:      43332  HIT:      43332  MISS:          0  HIT %:        100  MISS %:          0   MPKI: 0
PSCL3 PREFETCH  REQUESTED:          0  ISSUED:          0  USEFUL:          0  USELESS:          0
PSCL3 USEFUL LOAD PREFETCHES:          0 PREFETCH ISSUED TO LOWER LEVEL:          0  ACCURACY: -nan
PSCL3 TIMELY PREFETCHES:          0 LATE PREFETCHES: 0 DROPPED PREFETCHES: 0
PSCL3 PREFETCHES SAME FILL-ORIGIN LEVEL: 0 DIFFERENT FILL-ORIGIN LEVEL: 0

PSCL2 TOTAL     ACCESS:      43332  HIT:      43209  MISS:        123  HIT %:    99.7161  MISS %:   0.283855   MPKI: 0.00246
PSCL2 LOAD TRANSLATION ACCESS:      43332  HIT:      43209  MISS:        123  HIT %:    99.7161  MISS %:   0.283855   MPKI: 0.00246
PSCL2 PREFETCH  REQUESTED:          0  ISSUED:          0  USEFUL:          0  USELESS:          0
PSCL2 USEFUL LOAD PREFETCHES:          0 PREFETCH ISSUED TO LOWER LEVEL:          0  ACCURACY: -nan
PSCL2 TIMELY PREFETCHES:          0 LATE PREFETCHES: 0 DROPPED PREFETCHES: 0
PSCL2 PREFETCHES SAME FILL-ORIGIN LEVEL: 0 DIFFERENT FILL-ORIGIN LEVEL: 0

LLC TOTAL     ACCESS:    2352032  HIT:     135491  MISS:    2216541  HIT %:    5.76059  MISS %:    94.2394   MPKI: 44.3308
LLC LOAD      ACCESS:     186954  HIT:      10150  MISS:     176804  HIT %:    5.42914  MISS %:    94.5709   MPKI: 3.53608
LLC RFO       ACCESS:     125719  HIT:        121  MISS:     125598  HIT %:  0.0962464  MISS %:    99.9038   MPKI: 2.51196
LLC PREFETCH  ACCESS:    1699466  HIT:     106000  MISS:    1593466  HIT %:    6.23725  MISS %:    93.7627   MPKI: 31.8693
AGUS PREFETCH L1 MISS: 0
LLC WRITEBACK ACCESS:     333391  HIT:      18836  MISS:     314555  HIT %:    5.64982  MISS %:    94.3502   MPKI: 6.2911
LLC LOAD TRANSLATION ACCESS:       6502  HIT:        384  MISS:       6118  HIT %:    5.90588  MISS %:    94.0941   MPKI: 0.12236
LLC PREFETCH  REQUESTED:          0  ISSUED:          0  USEFUL:       1188  USELESS:    1584777
LLC USEFUL LOAD PREFETCHES:       1188 PREFETCH ISSUED TO LOWER LEVEL:    1593466  ACCURACY: 0.0745545
LLC TIMELY PREFETCHES:       1188 LATE PREFETCHES: 0 DROPPED PREFETCHES: 0
LLC PREFETCHES SAME FILL-ORIGIN LEVEL: 0 DIFFERENT FILL-ORIGIN LEVEL: 0
LLC AVERAGE MISS LATENCY: 148.021 cycles
LLC RQ	ACCESS:     319176	FORWARD:          0	MERGED:          0	TO_CACHE:     319176
LLC WQ	ACCESS:     333391	FORWARD:          0	MERGED:          0	TO_CACHE:     333391
LLC PQ	ACCESS:    1699466	FORWARD:          0	MERGED:          0	TO_CACHE:    1699466

LLC Dense regions hint to LLC: 0

RAW hits: 375747
Loads Generated: 16215513
Loads sent to L1D: 15839766
Stores Generated: 14166002
Stores sent to L1D: 14166007
Major fault: 0 Minor fault: 31203
Allocated PAGES: 31203
[Bingo] PHT Access: 90218
[Bingo] PHT Hit PC+Addr: 3169
[Bingo] PHT Hit PC+Offs: 86899
[Bingo] PHT Miss: 150
[Bingo] Prefetch PC+Addr: 0
[Bingo] Prefetch PC+Offs: 0
[Bingo] Useful PC+Addr: 0
[Bingo] Useful PC+Offs: 0
[Bingo] Useless PC+Addr: 0
[Bingo] Useless PC+Offs: 0
[Bingo] L1 Prefetch per Region: 0
[Bingo] L2 Prefetch per Region: 20.8667
[Bingo] L3 Prefetch per Region: 0
[Bingo] No Prefetch per Region: 11.1333
[Bingo] Number of Voters Mean: 15.8525
[Bingo] Number of Voters SD: 14.0766
PHT read accesses: 1408169
PHT write accesses: 88143
AT read accesses: 1367158
AT write accesses: 1375945
FT read accesses: 267204
FT write accesses: 90218
PS read accesses: 306714
PS write accesses: 90068
PHT tag read accesses: 4187892
PHT tag write accesses: 91312
AT tag read accesses: 58053248
AT tag write accesses: 1455291
FT tag read accesses: 38297833
FT tag write accesses: 268929
PS tag read accesses: 25549072
PS tag write accesses: 396538

DRAM Statistics
 CHANNEL 0
 RQ ROW_BUFFER_HIT:    1268149  ROW_BUFFER_MISS:     633837
 DBUS_CONGESTED:       1610
 WQ ROW_BUFFER_HIT:      41345  ROW_BUFFER_MISS:     297286  FULL:          0

 AVG_CONGESTED_CYCLE: 4
 All warmup complete: 2
Channel 0 Bank busy for read cycles: 0
Channel 0 Bank busy for write cycles: 0
Channel 0
Rank 0
0banks busy for read cycles: 45641592
0banks busy for write cycles: 47312
1banks busy for read cycles: 17955222
1banks busy for write cycles: 6066251
2banks busy for read cycles: 3092700
2banks busy for write cycles: 2660098
3banks busy for read cycles: 2327295
3banks busy for write cycles: 1890365
4banks busy for read cycles: 1975431
4banks busy for write cycles: 1632395
5banks busy for read cycles: 1956933
5banks busy for write cycles: 1466742
6banks busy for read cycles: 2207510
6banks busy for write cycles: 1330680
7banks busy for read cycles: 3526430
7banks busy for write cycles: 1382001
8banks busy for read cycles: 9032204
8banks busy for write cycles: 2605734

CPU 0 Branch Prediction Accuracy: 98.167% MPKI: 1.85038 Average ROB Occupancy at Mispredict: 183.407
Branch types
NOT_BRANCH: 44952412 89.9048%
BRANCH_DIRECT_JUMP: 263981 0.527962%
BRANCH_INDIRECT: 0 0%
BRANCH_CONDITIONAL: 4783413 9.56683%
BRANCH_DIRECT_CALL: 26 5.2e-05%
BRANCH_INDIRECT_CALL: 0 0%
BRANCH_RETURN: 26 5.2e-05%
BRANCH_OTHER: 0 0%

DRAM PAGES: 1048576
Allocated PAGES: 31203
