Initialize SIGNATURE TABLE
ST_SET: 1
ST_WAY: 256
ST_TAG_BIT: 16
ST_TAG_MASK: ffff

Initialize PATTERN TABLE
PT_SET: 512
PT_WAY: 4
SIG_DELTA_BIT: 7
C_SIG_BIT: 4
C_DELTA_BIT: 4

Initialize PREFETCH FILTER
FILTER_SET: 1024

*** ChampSim Multicore Out-of-Order Simulator ***

Warmup Instructions: 50000000
Simulation Instructions: 50000000
Number of CPUs: 1
LLC sets: 2048
LLC ways: 16
Off-chip DRAM Size: 4096 MB Channels: 1 Width: 64-bit Data Rate: 6400 MT/s
CPU 0 runs ./tracer/traces/605.mcf_s-782B.champsimtrace.xz
.xz
CPU 0 Bimodal branch predictor
BTB has LRU replacement policy
ITLB has LRU replacement policy
DTLB has LRU replacement policy
STLB has LRU replacement policy
L1I has LRU replacement policy
L1D has LRU replacement policy
ST_WAYS: 256
PT_SETS: 512
Initialize SRRIP state for L2C
Initialize Hawkeye state
Heartbeat CPU 0 instructions: 10000001 cycles: 3742246 heartbeat IPC: 2.67219 cumulative IPC: 2.67219 (Simulation time: 0 hr 0 min 47 sec) 
Heartbeat CPU 0 instructions: 20000000 cycles: 7473734 heartbeat IPC: 2.6799 cumulative IPC: 2.67604 (Simulation time: 0 hr 1 min 37 sec) 
Heartbeat CPU 0 instructions: 30000000 cycles: 11249850 heartbeat IPC: 2.64822 cumulative IPC: 2.6667 (Simulation time: 0 hr 2 min 36 sec) 
Heartbeat CPU 0 instructions: 40000003 cycles: 15003348 heartbeat IPC: 2.66418 cumulative IPC: 2.66607 (Simulation time: 0 hr 3 min 38 sec) 
Heartbeat CPU 0 instructions: 50000000 cycles: 18783484 heartbeat IPC: 2.64541 cumulative IPC: 2.66191 (Simulation time: 0 hr 4 min 41 sec) 

Warmup complete CPU 0 instructions: 50000001 cycles: 18783485 (Simulation time: 0 hr 4 min 41 sec) 

Heartbeat CPU 0 instructions: 60000000 cycles: 88718649 heartbeat IPC: 0.14299 cumulative IPC: 0.14299 (Simulation time: 0 hr 7 min 9 sec) 
Heartbeat CPU 0 instructions: 70000002 cycles: 158255195 heartbeat IPC: 0.143809 cumulative IPC: 0.143398 (Simulation time: 0 hr 9 min 38 sec) 
Heartbeat CPU 0 instructions: 80000002 cycles: 228318560 heartbeat IPC: 0.142728 cumulative IPC: 0.143174 (Simulation time: 0 hr 12 min 0 sec) 
Heartbeat CPU 0 instructions: 90000000 cycles: 301527752 heartbeat IPC: 0.136595 cumulative IPC: 0.141471 (Simulation time: 0 hr 14 min 10 sec) 
Heartbeat CPU 0 instructions: 100000001 cycles: 375963835 heartbeat IPC: 0.134343 cumulative IPC: 0.139985 (Simulation time: 0 hr 16 min 0 sec) 
Finished CPU 0 instructions: 50000000 cycles: 357180350 cumulative IPC: 0.139985 (Simulation time: 0 hr 16 min 0 sec) 

ChampSim completed all CPUs

Region of Interest Statistics

CPU 0 cumulative IPC: 0.139985 instructions: 50000000 cycles: 357180350
ITLB TOTAL     ACCESS:    8144034  HIT:    8144034  MISS:          0  HIT %:        100  MISS %:          0   MPKI: 0
ITLB LOAD TRANSLATION ACCESS:    8144034  HIT:    8144034  MISS:          0  HIT %:        100  MISS %:          0   MPKI: 0
ITLB PREFETCH  REQUESTED:          0  ISSUED:          0  USEFUL:          0  USELESS:          0
ITLB USEFUL LOAD PREFETCHES:          0 PREFETCH ISSUED TO LOWER LEVEL:          0  ACCURACY: -nan
ITLB TIMELY PREFETCHES:          0 LATE PREFETCHES: 0 DROPPED PREFETCHES: 0
ITLB PREFETCHES SAME FILL-ORIGIN LEVEL: 0 DIFFERENT FILL-ORIGIN LEVEL: 0
ITLB AVERAGE MISS LATENCY: -nan cycles
ITLB RQ	ACCESS:    8261611	FORWARD:          0	MERGED:     117576	TO_CACHE:    8144035

DTLB TOTAL     ACCESS:   10616631  HIT:    6364203  MISS:    4252428  HIT %:    59.9456  MISS %:    40.0544   MPKI: 85.0486
DTLB LOAD TRANSLATION ACCESS:   10616631  HIT:    6364203  MISS:    4252428  HIT %:    59.9456  MISS %:    40.0544   MPKI: 85.0486
DTLB PREFETCH  REQUESTED:          0  ISSUED:          0  USEFUL:          0  USELESS:          0
DTLB USEFUL LOAD PREFETCHES:          0 PREFETCH ISSUED TO LOWER LEVEL:          0  ACCURACY: -nan
DTLB TIMELY PREFETCHES:          0 LATE PREFETCHES: 0 DROPPED PREFETCHES: 0
DTLB PREFETCHES SAME FILL-ORIGIN LEVEL: 0 DIFFERENT FILL-ORIGIN LEVEL: 0
DTLB AVERAGE MISS LATENCY: 11.5976 cycles
DTLB RQ	ACCESS:   11804455	FORWARD:          0	MERGED:    1123136	TO_CACHE:   10681319

STLB TOTAL     ACCESS:    7018893  HIT:    6961823  MISS:      57070  HIT %:    99.1869  MISS %:   0.813091   MPKI: 1.1414
STLB LOAD TRANSLATION ACCESS:    4252428  HIT:    4195358  MISS:      57070  HIT %:    98.6579  MISS %:    1.34206   MPKI: 1.1414
STLB TRANSLATION FROM L1D PREFETCHER ACCESS:    2766465  HIT:    2766465  MISS:          0  HIT %:        100  MISS %:          0   MPKI: 0
STLB PREFETCH  REQUESTED:          0  ISSUED:          0  USEFUL:          0  USELESS:          0
STLB USEFUL LOAD PREFETCHES:          0 PREFETCH ISSUED TO LOWER LEVEL:          0  ACCURACY: -nan
STLB TIMELY PREFETCHES:          0 LATE PREFETCHES: 0 DROPPED PREFETCHES: 0
STLB PREFETCHES SAME FILL-ORIGIN LEVEL: 0 DIFFERENT FILL-ORIGIN LEVEL: 0
STLB AVERAGE MISS LATENCY: 167.482 cycles
STLB RQ	ACCESS:   15959271	FORWARD:          0	MERGED:    8940378	TO_CACHE:    7018893

STLB Hit, L1D data hit: 0
STLB Hit, L2C data hit: 0
STLB Hit, LLC data hit: 0
STLB Hit, LLC data miss: 0
STLB STLB hints to L2: 0
L1D TOTAL     ACCESS:   21136722  HIT:    5614156  MISS:   15522566  HIT %:    26.5611  MISS %:    73.4389   MPKI: 310.451
L1D LOAD      ACCESS:   10579402  HIT:    4602555  MISS:    5976847  HIT %:    43.5049  MISS %:    56.4951   MPKI: 119.537
L1D RFO       ACCESS:    1024937  HIT:    1006413  MISS:      18524  HIT %:    98.1927  MISS %:    1.80733   MPKI: 0.37048
L1D PREFETCH  ACCESS:    9532383  HIT:       5188  MISS:    9527195  HIT %:   0.054425  MISS %:    99.9456   MPKI: 190.544
AGUS PREFETCH L1 MISS: 0
L1D PREFETCH  REQUESTED:   23429713  ISSUED:   23429713  USEFUL:    1572708  USELESS:    7954370
L1D USEFUL LOAD PREFETCHES:    1572708 PREFETCH ISSUED TO LOWER LEVEL:   12450087  ACCURACY: 12.6321
L1D TIMELY PREFETCHES:    1572708 LATE PREFETCHES: 119487 DROPPED PREFETCHES: 0
L1D PREFETCHES SAME FILL-ORIGIN LEVEL: 9806760 DIFFERENT FILL-ORIGIN LEVEL: 2643327
L1D AVERAGE MISS LATENCY: 1.48544e+06 cycles
L1D RQ	ACCESS:   17779421	FORWARD:          0	MERGED:    6887607	TO_CACHE:   10730704
L1D WQ	ACCESS:    1110839	FORWARD:     161150	MERGED:      37088	TO_CACHE:    1073751
L1D PQ	ACCESS:   11722870	FORWARD:          0	MERGED:      15987	TO_CACHE:   11706843

L1D UNIQUE REGIONS ACCESSED: 0
L1D REGIONS CONFLICTS: 0
L1D Cross Page Prefetch Requests: 0
L1D Same Page Prefetch Requests: 17558924
L1D ROI Sum of L1D PQ occupancy: 172669407
L1D PREFETCHES PUSHED FROM L2C: 0
L1I TOTAL     ACCESS:    8261610  HIT:    8261610  MISS:          0  HIT %:        100  MISS %:          0   MPKI: 0
L1I LOAD      ACCESS:    8261610  HIT:    8261610  MISS:          0  HIT %:        100  MISS %:          0   MPKI: 0
L1I PREFETCH  REQUESTED:          0  ISSUED:          0  USEFUL:          0  USELESS:          0
L1I USEFUL LOAD PREFETCHES:          0 PREFETCH ISSUED TO LOWER LEVEL:          0  ACCURACY: -nan
L1I TIMELY PREFETCHES:          0 LATE PREFETCHES: 0 DROPPED PREFETCHES: 0
L1I PREFETCHES SAME FILL-ORIGIN LEVEL: 0 DIFFERENT FILL-ORIGIN LEVEL: 0
L1I AVERAGE MISS LATENCY: -nan cycles
L1I RQ	ACCESS:   11276910	FORWARD:          0	MERGED:    3015299	TO_CACHE:    8261611

BTB TOTAL     ACCESS:   14775569  HIT:   14712775  MISS:      62794  HIT %:     99.575  MISS %:   0.424985   MPKI: 1.25588
BTB BRANCH_DIRECT_JUMP	ACCESS:    1899352  HIT:    1899316  MISS:         36
BTB BRANCH_INDIRECT	ACCESS:          0  HIT:          0  MISS:          0
BTB BRANCH_CONDITIONAL	ACCESS:   12452229  HIT:   12452150  MISS:         79
BTB BRANCH_DIRECT_CALL	ACCESS:     195242  HIT:     195225  MISS:         17
BTB BRANCH_INDIRECT_CALL	ACCESS:      16752  HIT:      16744  MISS:          8
BTB BRANCH_RETURN	ACCESS:     211994  HIT:     149340  MISS:      62654
BTB BRANCH_OTHER ACCESS:           0  HIT:          0  MISS:          0

L2C TOTAL     ACCESS:   19313485  HIT:    3543610  MISS:   15769875  HIT %:    18.3479  MISS %:    81.6521   MPKI: 315.397
L2C LOAD      ACCESS:    5857340  HIT:    1021873  MISS:    4835467  HIT %:     17.446  MISS %:     82.554   MPKI: 96.7093
L2C DATA LOAD MPKI: 96.7093
L2C INSTRUCTION LOAD MPKI: 0
L2C RFO       ACCESS:      18515  HIT:       2918  MISS:      15597  HIT %:    15.7602  MISS %:    84.2398   MPKI: 0.31194
L2C PREFETCH  ACCESS:   13221817  HIT:    2323912  MISS:   10897905  HIT %:    17.5763  MISS %:    82.4237   MPKI: 217.958
AGUS PREFETCH L1 MISS: 0
L2C DATA PREFETCH MPKI: 217.958
L2C INSTRUCTION PREFETCH MPKI: 0
L2C WRITEBACK ACCESS:     158210  HIT:     157191  MISS:       1019  HIT %:    99.3559  MISS %:   0.644081   MPKI: 0.02038
L2C LOAD TRANSLATION ACCESS:      57603  HIT:      37716  MISS:      19887  HIT %:    65.4758  MISS %:    34.5242   MPKI: 0.39774
L2C PREFETCH  REQUESTED:   30747538  ISSUED:   30636860  USEFUL:     364447  USELESS:   10532345
L2C USEFUL LOAD PREFETCHES:     364447 PREFETCH ISSUED TO LOWER LEVEL:   19492566  ACCURACY: 1.86967
L2C TIMELY PREFETCHES:     364447 LATE PREFETCHES: 111156 DROPPED PREFETCHES: 0
L2C PREFETCHES SAME FILL-ORIGIN LEVEL: 2397659 DIFFERENT FILL-ORIGIN LEVEL: 8483496
L2C AVERAGE MISS LATENCY: 165.229 cycles
L2C RQ	ACCESS:    5933479	FORWARD:          0	MERGED:          0	TO_CACHE:    5933458
L2C WQ	ACCESS:     158210	FORWARD:         22	MERGED:          0	TO_CACHE:     158210
L2C PQ	ACCESS:   42239832	FORWARD:          0	MERGED:   19884672	TO_CACHE:   22355159

L2C Instructions Evicting Data 0
L2C Translations Evicting Data 19863
L2C Data Evicting Data 15729096
L2C Instructions Evicting Instructions 0
L2C Translations Evicting Instructions 0
L2C Data Evicting Instructions 0
L2C Instructions Evicting Translations 0
L2C Translations Evicting Translations 24
L2C Data Evicting Translations 19873
L2C Dense regions hint from L2: 0
PSCL5 TOTAL     ACCESS:      57070  HIT:      57070  MISS:          0  HIT %:        100  MISS %:          0   MPKI: 0
PSCL5 LOAD TRANSLATION ACCESS:      57070  HIT:      57070  MISS:          0  HIT %:        100  MISS %:          0   MPKI: 0
PSCL5 PREFETCH  REQUESTED:          0  ISSUED:          0  USEFUL:          0  USELESS:          0
PSCL5 USEFUL LOAD PREFETCHES:          0 PREFETCH ISSUED TO LOWER LEVEL:          0  ACCURACY: -nan
PSCL5 TIMELY PREFETCHES:          0 LATE PREFETCHES: 0 DROPPED PREFETCHES: 0
PSCL5 PREFETCHES SAME FILL-ORIGIN LEVEL: 0 DIFFERENT FILL-ORIGIN LEVEL: 0

PSCL4 TOTAL     ACCESS:      57070  HIT:      57070  MISS:          0  HIT %:        100  MISS %:          0   MPKI: 0
PSCL4 LOAD TRANSLATION ACCESS:      57070  HIT:      57070  MISS:          0  HIT %:        100  MISS %:          0   MPKI: 0
PSCL4 PREFETCH  REQUESTED:          0  ISSUED:          0  USEFUL:          0  USELESS:          0
PSCL4 USEFUL LOAD PREFETCHES:          0 PREFETCH ISSUED TO LOWER LEVEL:          0  ACCURACY: -nan
PSCL4 TIMELY PREFETCHES:          0 LATE PREFETCHES: 0 DROPPED PREFETCHES: 0
PSCL4 PREFETCHES SAME FILL-ORIGIN LEVEL: 0 DIFFERENT FILL-ORIGIN LEVEL: 0

PSCL3 TOTAL     ACCESS:      57070  HIT:      57070  MISS:          0  HIT %:        100  MISS %:          0   MPKI: 0
PSCL3 LOAD TRANSLATION ACCESS:      57070  HIT:      57070  MISS:          0  HIT %:        100  MISS %:          0   MPKI: 0
PSCL3 PREFETCH  REQUESTED:          0  ISSUED:          0  USEFUL:          0  USELESS:          0
PSCL3 USEFUL LOAD PREFETCHES:          0 PREFETCH ISSUED TO LOWER LEVEL:          0  ACCURACY: -nan
PSCL3 TIMELY PREFETCHES:          0 LATE PREFETCHES: 0 DROPPED PREFETCHES: 0
PSCL3 PREFETCHES SAME FILL-ORIGIN LEVEL: 0 DIFFERENT FILL-ORIGIN LEVEL: 0

PSCL2 TOTAL     ACCESS:      57070  HIT:      56338  MISS:        732  HIT %:    98.7174  MISS %:    1.28264   MPKI: 0.01464
PSCL2 LOAD TRANSLATION ACCESS:      57070  HIT:      56338  MISS:        732  HIT %:    98.7174  MISS %:    1.28264   MPKI: 0.01464
PSCL2 PREFETCH  REQUESTED:          0  ISSUED:          0  USEFUL:          0  USELESS:          0
PSCL2 USEFUL LOAD PREFETCHES:          0 PREFETCH ISSUED TO LOWER LEVEL:          0  ACCURACY: -nan
PSCL2 TIMELY PREFETCHES:          0 LATE PREFETCHES: 0 DROPPED PREFETCHES: 0
PSCL2 PREFETCHES SAME FILL-ORIGIN LEVEL: 0 DIFFERENT FILL-ORIGIN LEVEL: 0

LLC TOTAL     ACCESS:   23271659  HIT:   11184450  MISS:   12087209  HIT %:    48.0604  MISS %:    51.9396   MPKI: 241.744
LLC LOAD      ACCESS:    4724308  HIT:    2851784  MISS:    1872524  HIT %:    60.3641  MISS %:    39.6359   MPKI: 37.4505
LLC RFO       ACCESS:      15597  HIT:      12087  MISS:       3510  HIT %:    77.4957  MISS %:    22.5043   MPKI: 0.0702
LLC PREFETCH  ACCESS:   18384860  HIT:    8204663  MISS:   10180197  HIT %:    44.6273  MISS %:    55.3727   MPKI: 203.604
AGUS PREFETCH L1 MISS: 0
LLC WRITEBACK ACCESS:     127007  HIT:     109695  MISS:      17312  HIT %:    86.3693  MISS %:    13.6307   MPKI: 0.34624
LLC LOAD TRANSLATION ACCESS:      19887  HIT:       6221  MISS:      13666  HIT %:    31.2817  MISS %:    68.7183   MPKI: 0.27332
LLC PREFETCH  REQUESTED:          0  ISSUED:          0  USEFUL:     628012  USELESS:    9548563
LLC USEFUL LOAD PREFETCHES:     628012 PREFETCH ISSUED TO LOWER LEVEL:   10445863  ACCURACY: 6.01206
LLC TIMELY PREFETCHES:     628012 LATE PREFETCHES: 265656 DROPPED PREFETCHES: 0
LLC PREFETCHES SAME FILL-ORIGIN LEVEL: 4547889 DIFFERENT FILL-ORIGIN LEVEL: 0
LLC AVERAGE MISS LATENCY: 273.257 cycles
LLC RQ	ACCESS:    4759795	FORWARD:          0	MERGED:          0	TO_CACHE:    4759792
LLC WQ	ACCESS:     127007	FORWARD:          3	MERGED:          0	TO_CACHE:     127007
LLC PQ	ACCESS:   19492566	FORWARD:          0	MERGED:     173973	TO_CACHE:   19318593

LLC Dense regions hint to LLC: 0

RAW hits: 130906
Loads Generated: 17910327
Loads sent to L1D: 17779421
Stores Generated: 1110839
Stores sent to L1D: 1110839
Major fault: 0 Minor fault: 86300
Allocated PAGES: 86300
=== CPU 0 L1D Prefetcher Statistics ===
[MLOP] History of tracked zone:
IIIIIIIIIIIIIIIIIIIIIIIIIIIIIIIIIIIIIIIIIIIIIIIIIIIIIIIIIIIIIIII
IIIIIIIIIIIIIIIIIIIIIIIIIIIIIIIIIIIIIIIIIIIIIIIIIIIIIIIIIIIIIIAI
IIIIIIIIIIIIIIIIIIIIIIIIIIIIIIIIIIIIIIIIIIIIIIIIIIIIIIIIIIIIIAAI
IIIIIIIIIIIIIIIIIIIIIIAIIIIIIIIIIIIIIIIIIIIIIIIIIIIIIIIIIIIIIIII
IIIIIIIIIIIIIIIIIIIIIIAI11111IIIIIIIIIIIIIIIIIIIIIIIIIIIIIIIIIII
IIIIIIIIIAI11IIIIIIIIIIIIIIIIIIIIIIIIIIIIIIIIIIIIIIIIIIIIIIIIIII
IIIIIIIIIAI11IIIIIIIIIIIIIIIIIIIIIIIIIIIIIIIIIIIIIAIIIIIIIIIIIII
IIIIIIIIIIIIIIIIIIIIIIIIIIIIIIIIIIIIIIIIIIIIIIIIIIIIIIIIIIIIIAII
IIIIIIIIIIIIIIIIIIIIIIIIIIIIIIIIIIIIIIIIIIIIIIAIIIIIIIIIIIIIIAII
IIIIIIIIIAII11IIIIIIIIIIIIIIIIIIIIIIIIIIIIIIIIAIIIIIIIIIIIIIIAII
IIIIIIIIIAII11IIIIIIIIAII111111111IIIIIIIIIIIIAIIIIIIIIIIIIIIAII
IIIIIIIIIIIIIIIIIIIIIIIIIAIIIIIIIIIIIIIIIIIIIIIIIIIIIIIIIIIIIIII
IIIIIIIIIIIIIIIIIIIIIIAI11IIIIIIIIIIIIIIIIIIIIIIIIIIIIIIIIIIIIII
IIIIIIIIIAIIIIIIIIIIIIIIIIIIIIIIIIIIIIIIIIIIIIIIIIIIIIIIIIIIIIII
IIIIIIIIIAIIIIIIIIIIIIIIIIIIIIIIIIIIIIIIIIIIIIIIIIAIIIIIIIIIIIII
IIIIIIIIIIIIIIIIIIIIIIIIIIIIIIIIIIIIIIIIIIIIIIIIIIIIIIIIIIIIIAI1
IIIIIIIIIIIIIIIIIIIIIIIIIIIIIIIIIIIIIIIIIIIIIIAI1IIIIIIIIIIIIAI1
IIIIIIIIIAIIIIIIIIIIIIIIIIIIIIIIIIIIIIIIIIIIIIAI1IIIIIIIIIIIIAI1
IIIIIIIIIAIIIIIIIIIIIIAIIIIIIIIIIIIIIIIIIIIIIIAI1IIIIIIIIIIIIAI1
IIIIIIIIIAIIIIIIIIIIIIAIIIIIIIIIIIIIIIIIIIIIIIAI1IIIIIIIIIIIIAA1
IIIIIIIIIIIIIIIIIIIIIIAIIIIIIIIIIIIIIIIIIIIIIIIIIIIIIIIIIIIIIIII
IIIIIIIIIIIIIIIIIIIIIIAIAIIIIIIIIIIIIIIIIIIIIIIIIIIIIIIIIIIIIIII
IIIIIIIIIAIIIIIIIIIIIIIIIIIIIIIIIIIIIIIIIIIIIIIIIIIIIIIIIIIIIIII
IIIIIIIIIAIIIIIIIIIIIIIIIIIIIIIIIIIIIIIIIIIIIIIIIIAIIIIIIIIIIIII
IIIIIIIIIIIIIIIIIIIIIIIIIIIIIIIIIIIIIIIIIIIIIIIIIIIIIIIIIIIIIAII
IIIIIIIIIIIIIIIIIIIIIIIIIIIIIIIIIIIIIIIIIIIIIIAI1IIIIIIIIIIIIAII
IIIIIIIIIAIIIIIIIIIIIIIIIIIIIIIIIIIIIIIIIIIIIIAI1IIIIIIIIIIIIAII
IIIIIIIIIAIIIIIIIIIIIIAI11IIIIIIIIIIIIIIIIIIIIAI1IIIIIIIIIIIIAII
IIIIAIIIIIIIIIIIIIIIIIIIIIIIIIIIIIIIIIIIIIIIIIIIIIIIIIIIIIIIIIII
IIIIIIIIIIIIIIIIIIIIIIAI11IIIIIIIIIIIIIIIIIIIIIIIIIIIIIIIIIIIIII
IIIIIIIIIIIIIIIIIIIIIIAI11IIIIAI111IIIIIIIIIIIIIIIIIIIIIIIIIIIII
IIIIIIIIIAIIIIIIIIIIIIIIIIIIIIIIIIIIIIIIIIIIIIIIIIIIIIIIIIIIIIII
IIIIIIIIIAIIIIIIIIIIIIIIIIIIIIIIIIIIIIIIIIIIIIIIIIAIIIIIIIIIIIII
IIIIIIIIIIIIIIIIIIIIIIIIIIIIIIIIIIIIIIIIIIIIIIIIIIIIIIIIIIIIIAII
IIIIIIIIIIIIIIIIIIIIIIIIIIIIIIIIIIIIIIIIIIIIIIAIIIIIIIIIIIIIIAII
IIIIIIIIIAIIIIIIIIIIIIIIIIIIIIIIIIIIIIIIIIIIIIAIIIIIIIIIIIIIIAII
IIIIIIIIIAIIIIIIIIIIIIAI1IIIIIIIIIIIIIIIIIIIIIAIIIIIIIIIIIIIIAII
IIIIIIIIIIIIIIIIIIIIIIIIIIIIIIIIIIIIIIIIIIIIIIIIIIIIIIIIIIIIIIAI
IIIIIIIIIIIIIIIIIIIIIIIIIIIIIIIIIIIIIIIIIIIIIIIIIIIIIIIIIIIIIAAI
IIIIIIIIIIIIIIIIIIIIIIIIIIIIIIIIIIIIIIIIIIIIIIIIIIIIIIIIIIIIIAA1
IIIIIIIIIIIIIIAIIIIIIIIIIIIIIIIIIIIIIIIIIIIIIIIIIIIIIIIIIIIIIIII
IIIIIIIIIIIIIIIIIIIIIIAI11IIIIIIIIIIIIIIIIIIIIIIIIIIIIIIIIIIIIII
IIIIIIIIIIIIIIIIIIIIIIAI11IIIIIIIAIIIIIIIIIIIIIIIIIIIIIIIIIIIIII
IIIIIIIIIAIIIIIIIIIIIIIIIIIIIIIIIIIIIIIIIIIIIIIIIIIIIIIIIIIIIIII
IIIIIIIIIAIIIIIIIIIIIIIIIIIIIIIIIIIIIIIIIIIIIIIIIIAIIIIIIIIIIIII
IIIIIIIIIIIIIIIIIIIIIIIIIIIIIIIIIIIIIIIIIIIIIIIIIIIIIIIIIIIIIAII
IIIIIIIIIIIIIIIIIIIIIIIIIIIIIIIIIIIIIIIIIIIIIIAIIIIIIIIIIIIIIAII
IIIIIIIIIAIIIIIIIIIIIIIIIIIIIIIIIIIIIIIIIIIIIIIIIIIIIIIIIIIIIIII
IIIIIIIIIAIIIIIIIIIIIIAII1IIIIIIIIIIIIIIIIIIIIIIIIIIIIIIIIIIIIII
IIIIIIIIIAIIIIIIIIIIIIAII1IIIIIIIIIIIIIIIIIIIIIIIIIIIIIIIIIIIIAI
IIIIIIIIIAIIIIIIIIIIIIAII1IIIIIIIIIIIIIIIIIIIIIIIIIIIIIIIIIIIAAI
IIIIIIIIIAIIIIIIIIIIIIAIIAIIIIIIIIIIIIIIIIIIIIIIIIIIIIIIIIIIIAAI
IIIIIIIIIIIIIIAI1IIIIIIIIIIIIIIIIIIIIIIIIIIIIIIIIIIIIIIIIIIIIIII
IIIIIIIIIIIIIIIIIIIIIIAIIIIIIIIIIIIIIIIIIIIIIIIIIIIIIIIIIIIIIIII
IIIIIIIIIIIIIIIIIIIIIIAIIIIIIIIIIAIIIIIIIIIIIIIIIIIIIIIIIIIIIIII
IIIIIIIIIAIIIIIIIIIIIIIIIIIIIIIIIIIIIIIIIIIIIIIIIIIIIIIIIIIIIIII
IIIIIIIIIAIIIIIIIIIIIIIIIIIIIIIIIIIIIIIIIIIIIIIIIIAIIIIIIIIIIIII
IIIIIIIIIIIIIIIIIIIIIIIIIIIIIIIIIIIIIIIIIIIIIIIIIIIIIIIIIIIIIAII
IIIIIIIIIIIIIIIIIIIIIIIIIIIIIIIIIIIIIIIIIIIIIIAIIIIIIIIIIIIIIAII
IIIIIIIIIIIAIIIIIIIIIIIIIIIIIIIIIIIIIIIIIIIIIIAIIIIIIIIIIIIIIAII
IIIIIIIIIIIAIIIIIIIIIIAI111IIIIIIIIIIIIIIIIIIIAIIIIIIIIIIIIIIAII
IIIIIIIIIIIAIIIIIIIIIIAI111IIIIIIIIIIIIIIIIIIIAIIIIIIIIIIIIIIAAI
IIIIIIIIIIIIIIA1IIIIIIIIIIIIIIIIIIIIIIIIIIIIIIIIIIIIIIIIIIIIIIII
IIIIIIIIIIIIIIIIIIIIIIAIIIIIIIIIIIIIIIIIIIIIIIIIIIIIIIIIIIIIIIII
IIIIIIIIIIIIIIIIIIIIIIAIIIIIIIIIIAIIIIIIIIIIIIIIIIIIIIIIIIIIIIII
IIIIIIIIIAIIIIIIIIIIIIIIIIIIIIIIIIIIIIIIIIIIIIIIIIIIIIIIIIIIIIII
IIIIIIIIIAIIIIIIIIIIIIIIIIIIIIIIIIIIIIIIIIIIIIIIIIAIIIIIIIIIIIII
IIIIIIIIIIIIIIIIIIIIIIIIIIIIIIIIIIIIIIIIIIIIIIIIIIIIIIIIIIIIIAII
IIIIIIIIIIIIIIIIIIIIIIIIIIIIIIIIIIIIIIIIIIIIIIAI111IIIIIIIIIIAII
IIIIIIIIIIIAI1IIIIIIIIIIIIIIIIIIIIIIIIIIIIIIIIIIIIIIIIIIIIIIIIII
IIIIIIIIIIIAI1IIIIIIIIAIIIIIIIIIIIIIIIIIIIIIIIIIIIIIIIIIIIIIIIII
IIIIIIIIIIIIIIAIIIIIIIIIIIIIIIIIIIIIIIIIIIIIIIIIIIIIIIIIIIIIIIII
IIIIIIIIIIIIIIIIIIIIIIAIIIIIIIIIIIIIIIIIIIIIIIIIIIIIIIIIIIIIIIII
IIIIIIIIIIIIIIIIIIIIIIAIIIIIIIIIIAIIIIIIIIIIIIIIIIIIIIIIIIIIIIII
IIIIIIIIIAIIIIIIIIIIIIIIIIIIIIIIIIIIIIIIIIIIIIIIIIIIIIIIIIIIIIII
IIIIIIIIIAIIIIIIIIIIIIIIIIIIIIIIIIIIIIIIIIIIIIIIIIAIIIIIIIIIIIII
IIIIIIIIIIIIIIIIIIIIIIIIIIIIIIIIIIIIIIIIIIIIIIIIIIIIIIIIIIIIIAII
IIIIIIIIIIIIIIIIIIIIIIIIIIIIIIIIIIIIIIIIIIIIIIAIIIIIIIIIIIIIIAII
IIIIIIIIIIIAI1IIIIIIIIIIIIIIIIIIIIIIIIIIIIIIIIAIIIIIIIIIIIIIIAII
IIIIIIIIIIIAI1IIIIIIIIAIIIIIIIIIIIIIIIIIIIIIIIAIIIIIIIIIIIIIIAII
IIIIIIIIIIIIIIAI1IIIIIIIIIIIIIIIIIIIIIIIIIIIIIIIIIIIIIIIIIIIIIII
IIIIIIIIIIIIIIIIIIIIIIAIIIIIIIIIIIIIIIIIIIIIIIIIIIIIIIIIIIIIIIII
IIIIIIIIIIIIIIIIIIIIIIAIIIIIIIIIIAI1IIIIIIIIIIIIIIIIIIIIIIIIIIII
IIIIIIIIIAIIIIIIIIIIIIIIIIIIIIIIIIIIIIIIIIIIIIIIIIIIIIIIIIIIIIII
IIIIIIIIIAIIIIIIIIIIIIIIIIIIIIIIIIIIIIIIIIIIIIIIIIAIIIIIIIIIIIII
IIIIIIIIIIIIIIIIIIIIIIIIIIIIIIIIIIIIIIIIIIIIIIIIIIIIIIIIIIIIIAII
IIIIIIIIIIIIIIIIIIIIIIIIIIIIIIIIIIIIIIIIIIIIIIAIIIIIIIIIIIIIIAII
IIIIIIIIIIIAI1IIIIIIIIIIIIIIIIIIIIIIIIIIIIIIIIAIIIIIIIIIIIIIIAII
IIIIIIIIIIIAI1IIIIIIIIAI111IIIIIIIIIIIIIIIIIIIAIIIIIIIIIIIIIIAII
IIIIIIIIIIIAI1IIIIIIIIAI111IIIIIIIIIIIIIIIIIIIAIIIIIIIIIIIIIIAAI
IIIIIIIIIIIAI1IIIIIIIIAI111IIIIIIIIIIIIIIIIIIIAIIIIIIIIIIIIIIAA2
IIIIIIIIIIIIIIA1IIIIIIIIIIIIIIIIIIIIIIIIIIIIIIIIIIIIIIIIIIIIIIII
IIIIIIIIIIIIIIIIIIIIIIAIIIIIIIIIIIIIIIIIIIIIIIIIIIIIIIIIIIIIIIII
IIIIIIIIIIIIIIIIIIIIIIAIIIIIIIIIIAIIIIIIIIIIIIIIIIIIIIIIIIIIIIII
IIIIIIIIIAI1IIIIIIIIIIIIIIIIIIIIIIIIIIIIIIIIIIIIIIIIIIIIIIIIIIII
IIIIIIIIIAI1IIIIIIIIIIIIIIIIIIIIIIIIIIIIIIIIIIIIIIAIIIIIIIIIIIII
IIIIIIIIIIIIIIIIIIIIIIIIIIIIIIIIIIIIIIIIIIIIIIIIIIIIIIIIIIIIIAII
IIIIIIIIIIIIIIIIIIIIIIIIIIIIIIIIIIIIIIIIIIIIIIAI1IIIIIIIIIIIIAII
IIIIIIIIIIIAIIIIIIIIIIIIIIIIIIIIIIIIIIIIIIIIIIAI1IIIIIIIIIIIIAII
IIIIIIIIIIIAIIIIIIIIIIAIIIIIIIIIIIIIIIIIIIIIIIAI1IIIIIIIIIIIIAII
IIIIIIIIIIIIIIAIIIIIIIIIIIIIIIIIIIIIIIIIIIIIIIIIIIIIIIIIIIIIIIII
IIIIIIIIIIIIIIIIIIIIIIAIIIIIIIIIIIIIIIIIIIIIIIIIIIIIIIIIIIIIIIII
IIIIIIIIIIIIIIIIIIIIIIIIIIIIIIIIIAIIIIIIIIIIIIIIIIIIIIIIIIIIIIII
IIIIIIIIIAIIIIIIIIIIIIIIIIIIIIIIIIIIIIIIIIIIIIIIIIIIIIIIIIIIIIII
IIIIIIIIIAIIIIIIIIIIIIIIIIIIIIIIIIIIIIIIIIIIIIIIIIAIIIIIIIIIIIII
IIIIIIIIIIIIIIIIIIIIIIIIIIIIIIIIIIIIIIIIIIIIIIIIIIIIIIIIIIIIIAII
IIIIIIIIIIIIIIIIIIIIIIIIIIIIIIIIIIIIIIIIIIIIIIAIIIIIIIIIIIIIIAII
IIIIIIIIIIIAI1IIIIIIIIIIIIIIIIIIIIIIIIIIIIIIIIAIIIIIIIIIIIIIIAII
IIIIIIIIIIIAI1IIIIIIIIAIIIIIIIIIIIIIIIIIIIIIIIAIIIIIIIIIIIIIIAII
IIIIIIIIIIIIIIIIAI111IIIIIIIIIIIIIIIIIIIIIIIIIIIIIIIIIIIIIIIIIII
IIIIIIIIIIIIIIAIA11111IIIIIIIIIIIIIIIIIIIIIIIIIIIIIIIIIIIIIIIIII
IIIIIIIIIIIIIIIIIIIIIIAIIIIIIIIIIIIIIIIIIIIIIIIIIIIIIIIIIIIIIIII
IIIIIIIIIIIIIIIIIIIIIIAIIIIIIIIIIAI1IIIIIIIIIIIIIIIIIIIIIIIIIIII
IIIIIIIIIAIIIIIIIIIIIIIIIIIIIIIIIIIIIIIIIIIIIIIIIIIIIIIIIIIIIIII
IIIIIIIIIAIIIIIIIIIIIIIIIIIIIIIIIIIIIIIIIIIIIIIIIIAIIIIIIIIIIIII
IIIIIIIIIIIIIIIIIIIIIIIIIIIIIIIIIIIIIIIIIIIIIIIIIIIIIIIIIIIIIAI1
IIIIIIIIIIIIIIIIIIIIIIIIIIIIIIIIIIIIIIIIIIIIIIAIIIIIIIIIIIIIIAI1
IIIIIIIIIIIAI1IIIIIIIIIIIIIIIIIIIIIIIIIIIIIIIIAIIIIIIIIIIIIIIAI1
IIIIIIIIIIIAI1IIIIIIIIAIIIIIIIIIIIIIIIIIIIIIIIAIIIIIIIIIIIIIIAI1
IIIIIIIIIIIIIIIIIIIIIIIIIIIIIIIIIIIIIIIIIIIAIIIIIIIIIIIIIIIIIIII
IIIIIIIIIIIIIIAIIIIIIIIIIIIIIIIIIIIIIIIIIIIAIIIIIIIIIIIIIIIIIIII
IIIIIIIIIIIIIIIIIIIIIIAIIIIIIIIIIIIIIIIIIIIIIIIIIIIIIIIIIIIIIIII
IIIIIIIIIIIIIIIIIIIIIIAIIIIIIIIIIIIAI1IIIIIIIIIIIIIIIIIIIIIIIIII
IIIIIIIIIAIIIIIIIIIIIIIIIIIIIIIIIIIIIIIIIIIIIIIIIIIIIIIIIIIIIIII
IIIIIIIIIAIIIIIIIIIIIIIIIIIIIIIIIIIIIIIIIIIIIIIIIIAIIIIIIIIIIIII
IIIIIIIIIIIIIIIIIIIIIIIIIIIIIIIIIIIIIIIIIIIIIIIIIIIIIIIIIIIIIAII
IIIIIIIIIIIIIIIIIIIIIIIIIIIIIIIIIIIIIIIIIIIIIIAI1IIIIIIIIIIIIAII
IIIIIIIIIIIAI1IIIIIIIIIIIIIIIIIIIIIIIIIIIIIIIIAI1IIIIIIIIIIIIAII
IIIIIIIIIIIAI1IIIIIIIIAI1111IIIIIIIIIIIIIIIIIIAI1IIIIIIIIIIIIAII
IIIIIIIIIIIIIIIIIIIIIIIIIIIIIIIIIIIIIIIIIIIIIIIIIIIIIAIIIIIIIIII
IIIIIIIIIIIIIIAI111IIIIIIIIIIIIIIIIIIIIIIIIIIIIIIIIIIAIIIIIIIIII
IIIIIIIIIIIIIIIIIIIIIIAI1111IIIIIIIIIIIIIIIIIIIIIIIIIIIIIIIIIIII
IIIIIIIIIIIIIIIIIIIIIIAI1111IIIIIIIAI1IIIIIIIIIIIIIIIIIIIIIIIIII
IIIIIIIIIAIIIIIIIIIIIIAI1111IIIIIIIAI1IIIIIIIIIIIIIIIIIIIIIIIIII
IIIIIIIIIAIIIIIIIIIIIIAI1111IIIIIIIAI1IIIIIIIIIIIIAIIIIIIIIIIIII
IIIIIIIIIIIIIIIIIIIIIIIIIIIIIIIIIIIIIIIIIIIIIIIIIIIIIIIIIIIIIAI1
IIIIIIIIIIIIIIIIIIIIIIIIIIIIIIIIIIIIIIIIIIIIIIAIIIIIIIIIIIIIIAI1
IIIIIIIIIIIIIIIIIIIIIIAI1IIIIIIIIIIIIIIIIIIIIIIIIIIIIIIIIIIIIIII
IIIIIIIIIIIIIIIIIIIIIIIIIIIIIIIIIIIIIIIIIIIIIIIIIIIIIIIIIIAIIIII
IIIIIIIIIIIIIIIIAIIIIIIIIIIIIIIIIIIIIIIIIIIIIIIIIIIIIIIIIIAIIIII
IIIIIIIIIIIIIIIIIIIIIIAI1IIIIIIIIIIIIIIIIIIIIIIIIIIIIIIIIIIIIIII
IIIIIIIIIIIIIIIIIIIIIIAI1IIIIIIIIIIIIAIIIIIIIIIIIIIIIIIIIIIIIIII
IIIIIIIIIAIIIIIIIIIIIIIIIIIIIIIIIIIIIIIIIIIIIIIIIIIIIIIIIIIIIIII
IIIIIIIIIAIIIIIIIIIIIIIIIIIIIIIIIIIIIIIIIIIIIIIIIIAI1IIIIIIIIIII
IIIIIIIIIIIIIIIIIIIIIIIIIIIIIIIIIIIIIIIIIIIIIIIIIIIIIIIIIIIIIAII
IIIIIIIIIIIIIIIIIIIIIIIIIIIIIIIIIIIIIIIIIIIIIIAIIIIIIIIIIIIIIAII
IIIIIIIIIIIIIIAIIIIIIIIIIIIIIIIIIIIIIIIIIIIIIIAIIIIIIIIIIIIIIAII
IIIIIIIIIIIIIIAIIIIIIIAI1IIIIIIIIIIIIIIIIIIIIIAIIIIIIIIIIIIIIAII
IIIIIIIIIIIIIIIIIIIIIIIIIIIIIIIIIIIIIIIIIIIIIIIIIIIIIIIIIIIAIIII
IIIIIIIIIIIIIIIIIIIIIIIIAIIIIIIIIIIIIIIIIIIIIIIIIIIIIIIIIIIAIIII
IIIIIIIIIIIIIIIIIIIIIIAIIIIIIIIIIIIIIIIIIIIIIIIIIIIIIIIIIIIIIIII
IIIIIIIIIIIIIIIIIIIIIIAIIIIIIIIIIIIIIAIIIIIIIIIIIIIIIIIIIIIIIIII
IIIIIIIIIAI1IIIIIIIIIIIIIIIIIIIIIIIIIIIIIIIIIIIIIIIIIIIIIIIIIIII
IIIIIIIIIAI1IIIIIIIIIIIIIIIIIIIIIIIIIIIIIIIIIIIIIIAI11IIIIIIIIII
IIIIIIIIIIIIIIIIIIIIIIIIIIIIIIIIIIIIIIIIIIIIIIIIIIIIIIIIIIIIIAII
IIIIIIIIIIIIIIIIIIIIIIIIIIIIIIIIIIIIIIIIIIIIIIAI11IIIIIIIIIIIAII
IIIIIIIIIIIIIIIIIIIAIIIIIIIIIIIIIIIIIIIIIIIIIIAI11IIIIIIIIIIIAII
IIIIIIIIIIIIIIIIIIIAIIAI11IIIIIIIIIIIIIIIIIIIIAI11IIIIIIIIIIIAII
IIIIAIIIIIIIIIIIIIIIIIIIIIIIIIIIIIIIIIIIIIIIIIIIIIIIIIIIIIIIIIII
IIIIAIIIIIIIIIIIIIIIIIIIIIIIIIIIIIIIIIIIIIIIIIIIIIIIIIIIIIIA1I1I
IIIIAIIIIIIIIIIIIIIIIIIIA1I1IIIIIIIIIIIIIIIIIIIIIIIIIIIIIIIA1I1I
IIIIIIIIIIIIIIIIIIIIIIAIIIIIIIIIIIIIIIIIIIIIIIIIIIIIIIIIIIIIIIII
IIIIIIIIIIIIIIIIIIIIIIAIIIIIIIIIIIIIIIAI1IIIIIIIIIIIIIIIIIIIIIII
IIIIIIIIIAIIIIIIIIIIIIIIIIIIIIIIIIIIIIIIIIIIIIIIIIIIIIIIIIIIIIII
IIIIIIIIIAIIIIIIIIIIIIIIIIIIIIIIIIIIIIIIIIIIIIIIIIAI1IIIIIIIIIII
IIIIIIIIIIIIIIIIIIIIIIIIIIIIIIIIIIIIIIIIIIIIIIIIIIIIIIIIIIIIIAII
IIIIIIIIIIIIIIIIIIIIIIIIIIIIIIIIIIIIIIIIIIIIIIAI111IIIIIIIIIIAII
IIIIIIIIIIIIIIIIIIIAIIIIIIIIIIIIIIIIIIIIIIIIIIAI111IIIIIIIIIIAII
IIIIIIIIIIIIIIIIIIIAIIAIIIIIIIIIIIIIIIIIIIIIIIAI111IIIIIIIIIIAII
IIIIIIIIIIIIIIIIIIIIIIIIA2IIIIIIIIIIIIIIIIIIIIIIIIIIIIIIIIIIIIII
IIIIIIIIIIIIIIIIIIIIIIIIA2IIIAIIIIIIIIIIIIIIIIIIIIIIIIIIIIIIIIII
IIIIIIIIIIIIIIIIIIIIIIAIIIIIIIIIIIIIIIIIIIIIIIIIIIIIIIIIIIIIIIII
IIIIIIIIIIIIIIIIIIIIIIAIIIIIIIIIIIIIIIIIAIIIIIIIIIIIIIIIIIIIIIII
IIIIIIIIIAIIIIIIIIIIIIIIIIIIIIIIIIIIIIIIIIIIIIIIIIIIIIIIIIIIIIII
IIIIIIIIIAIIIIIIIIIIIIIIIIIIIIIIIIIIIIIIIIIIIIIIIIAIIIIIIIIIIIII
IIIIIIIIIIIIIIIIIIIIIIIIIIIIIIIIIIIIIIIIIIIIIIIIIIIIIIIIIIIIIAII
IIIIIIIIIIIIIIIIIIIIIIIIIIIIIIIIIIIIIIIIIIIIIIAIIIIIIIIIIIIIIAII
IIIIIIIIIIIIIIIIIIIAIIIIIIIIIIIIIIIIIIIIIIIIIIAIIIIIIIIIIIIIIAII
IIIIIIIIIIIIIIIIIIIAIIAIIIIIIIIIIIIIIIIIIIIIIIAIIIIIIIIIIIIIIAII
IIIIIIIIIIIIIIIIIIIAIIAIIIIIIIIIIIIIIIIIIIIIIIAIIIIIIIIIIIIIIAAI
IIIIIIIIIIIIIIIIIIIIIIIIIAIIIIIIIIIIIIIIIIIIIIIIIIIIIIIIIIIIIIII
IIIIIIIIIIIIIIIIIIIIIIIIIAIIIIAIIIIIIIIIIIIIIIIIIIIIIIIIIIIIIIII
IIIIIIIIIIIIIIIIIIIIIIAIIIIIIIIIIIIIIIIIIIIIIIIIIIIIIIIIIIIIIIII
IIIIIIIIIIIIIIIIIIIIIIAIIIIIIIIIIIIIIIIIIIAI1IIIIIIIIIIIIIIIIIII
IIIIIIIIIAIIIIIIIIIIIIIIIIIIIIIIIIIIIIIIIIIIIIIIIIIIIIIIIIIIIIII
IIIIIIIIIAIIIIIIIIIIIIIIIIIIIIIIIIIIIIIIIIIIIIIIIIAIIIIIIIIIIIII
IIIIIIIIIIIIIIIIIIIIIIIIIIIIIIIIIIIIIIIIIIIIIIIIIIIIIIIIIIIIIAII
IIIIIIIIIIIIIIIIIIIIIIIIIIIIIIIIIIIIIIIIIIIIIIAI1IIIIIIIIIIIIAII
IIIIIIIIIIIIIIIIIIIAI1IIIIIIIIIIIIIIIIIIIIIIIIAI1IIIIIIIIIIIIAII
IIIIIIIIIIIIIIIIIIIAI1AI1IIIIIIIIIIIIIIIIIIIIIAI1IIIIIIIIIIIIAII
IIIIIIIIIIIIIIIIIIIIIIIIIIIIIIA1IIIIIIIIIIIIIIIIIIIIIIIIIIIIIIII
IIIIIIIIIIIIIIIIIIIIIIAI1IIIIIIIIIIIIIIIIIIIIIIIIIIIIIIIIIIIIIII
IIIIIIIIIIIIIIIIIIIIIIAI1IIIIIIIIIIIIIIIIIIIIAIIIIIIIIIIIIIIIIII
IIIIIIIIIAIIIIIIIIIIIIIIIIIIIIIIIIIIIIIIIIIIIIIIIIIIIIIIIIIIIIII
IIIIIIIIIAIIIIIIIIIIIIIIIIIIIIIIIIIIIIIIIIIIIIIIIIAIIIIIIIIIIIII
IIIIIIIIIIIIIIIIIIIIIIIIIIIIIIIIIIIIIIIIIIIIIIIIIIIIIIIIIIIIIAII
IIIIIIIIIIIIIIIIIIIIIIIIIIIIIIIIIIIIIIIIIIIIIIAI1IIIIIIIIIIIIAII
IIIIIIIIIIIIIIIIIIIIAIIIIIIIIIIIIIIIIIIIIIIIIIAI1IIIIIIIIIIIIAII
IIIIIIIIIIIIIIIIIIIIAIAIIIIIIIIIIIIIIIIIIIIIIIAI1IIIIIIIIIIIIAII
IIIIIIIIIIIIIIIIIIIIIIIIIIIIIIIIIA2IIIIIIIIIIIIIIIIIIIIIIIIIIIII
IIIIIIIIIIIIIIIIIIIIIIIIIIIIIIIIIA2AIIIIIIIIIIIIIIIIIIIIIIIIIIII
IIIIIIIIIIIIIIIIIIIIIIAI1IIIIIIIIIIIIIIIIIIIIIIIIIIIIIIIIIIIIIII
IIIIIIIIIIIIIIIIIIIIIIAI1IIIIIIIIIIIIIIIIIIIIAI1111111111IIIIIII
IIIIIIIIIAIIIIIIIIIIIIIIIIIIIIIIIIIIIIIIIIIIIIIIIIIIIIIIIIIIIIII
IIIIIIIIIAIIIIIIIIIIIIIIIIIIIIIIIIIIIIIIIIIIIIIIIIAIIIIIIIIIIIII
IIIIIIIIIIIIIIIIIIIIIIIIIIIIIIIIIIIIIIIIIIIIIIIIIIIIIIIIIIIIIAII
IIIIIIIIIIIIIIIIIIIIIIIIIIIIIIIIIIIIIIIIIIIIIIAIIIIIIIIIIIIIIAII
IIIIIIIIIIIIIIIIIIIIAIIIIIIIIIIIIIIIIIIIIIIIIIAIIIIIIIIIIIIIIAII
IIIIIIIIIIIIIIIIIIIIAIAI111IIIIIIIIIIIIIIIIIIIAIIIIIIIIIIIIIIAII
IIIIIIIIIIIIIIIIIIIIAIAI111IIIIIIIIIIIIIIIIIIIAIIIIIIIIIIIIIIAAI
IIIIIIIIIIIIIIIIIIIIAIAI111IIIIIIIIIIIIIIIIIIIAIIIIIIIIIIIIIIAA1
IIIIIIIIIIIIIIIIIIIIIIIIIIIIIIIIIA2IIIIIIIIIIIIIIIIIIIIIIIIIIIII
IIIIIIIIIIIIIIIIIIIIIIIIIIIIIIIIIA2AIIIIIIIIIIIIIIIIIIIIIIIIIIII
IIIIIIIIIIIIIIIIIIIIIIAIIIIIIIIIIIIIIIIIIIIIIIIIIIIIIIIIIIIIIIII
IIIIIIIIIIIIIIIIIIIIIIAIIIIIIIIIIIIIIIIIIIIIIAIIIIIIIIIIIIIIIIII
IIIIIIIIIAIIIIIIIIIIIIIIIIIIIIIIIIIIIIIIIIIIIIIIIIIIIIIIIIIIIIII
IIIIIIIIIAIIIIIIIIIIIIIIIIIIIIIIIIIIIIIIIIIIIIIIIIAIIIIIIIIIIIII
IIIIIIIIIIIIIIIIIIIIIIIIIIIIIIIIIIIIIIIIIIIIIIIIIIIIIIIIIIIIIAII
IIIIIIIIIIIIIIIIIIIIIIIIIIIIIIIIIIIIIIIIIIIIIIAIIIIIIIIIIIIIIAII
IIIIIIIIIIIIIIIIIIIIIIIIAIIIIIIIIIIIIIIIIIIIIIAIIIIIIIIIIIIIIAII
IIIIIIIIIIIIIIIIIIIIIIAIA1IIIIIIIIIIIIIIIIIIIIAIIIIIIIIIIIIIIAII
IIIIIIIIIIIIIIIIIIIIIIIIIIIIIIIIIIIAIIIIIIIIIIIIIIIIIIIIIIIIIIII
IIIIIIIIIIIIIIIIIIIIIIIIIIIIIIIIIIIIIIIIIIIAIIIIIIIIIIIIIIIIIIII
IIIIIIIIIIIIIIIIIIIIIIAIIIIIIIIIIIIIIIIIIIIIIIIIIIIIIIIIIIIIIIII
IIIIIIIIIIIIIIIIIIIIIIAIIIIIIIIIIIIIIIIIIIIIIAIIIIIIIIIIIIIIIIII
IIIIIIIIIAIIIIIIIIIIIIIIIIIIIIIIIIIIIIIIIIIIIIIIIIIIIIIIIIIIIIII
IIIIIIIIIAIIIIIIIIIIIIIIIIIIIIIIIIIIIIIIIIIIIIIIIIAIIIIIIIIIIIII
IIIIIIIIIIIIIIIIIIIIIIIIIIIIIIIIIIIIIIIIIIIIIIIIIIIIIIIIIIIIIAII
IIIIIIIIIIIIIIIIIIIIIIIIIIIIIIIIIIIIIIIIIIIIIIAIIIIIIIIIIIIIIAII
IIIIIIIIIIIIIIIIIIIIIIIIIAIIIIIIIIIIIIIIIIIIIIAIIIIIIIIIIIIIIAII
IIIIIIIIIIIIIIIIIIIIIIAI1AIIIIIIIIIIIIIIIIIIIIAIIIIIIIIIIIIIIAII
IIIIIIIIIIIIIIIIIIIIIIIIIIIIIIIIIIIIIIIIIIAI111IIIIIIIIIIIIIIIII
IIIIIIIIIIIIIIIIIIIIIIIIIIIIIIIIIIIIIIIIIIAI1A111IIIIIIIIIIIIIII
IIIIIIIIIIIIIIIIIIIIIIAIIIIIIIIIIIIIIIIIIIIIIIIIIIIIIIIIIIIIIIII
IIIIIIIIIIIIIIIIIIIIIIAIIIIIIIIIIIIIIIIIIIIIIIIIIIIIIIIIIIIAIIII
IIIIIIIIIAIIIIIIIIIIIIIIIIIIIIIIIIIIIIIIIIIIIIIIIIIIIIIIIIIIIIII
IIIIIIIIIAIIIIIIIIIIIIIIIIIIIIIIIIIIIIIIIIIIIIIIIIAIIIIIIIIIIIII
IIIIIIIIIIIIIIIIIIIIIIIIIIIIIIIIIIIIIIIIIIIIIIIIIIIIIIIIIIIIIAII
IIIIIIIIIIIIIIIIIIIIIIIIIIIIIIIIIIIIIIIIIIIIIIAIIIIIIIIIIIIIIAII
IIIIIIIIIIIIIIIIIIIIIIIIIAIIIIIIIIIIIIIIIIIIIIAIIIIIIIIIIIIIIAII
IIIIIIIIIIIIIIIIIIIIIIAIIAIIIIIIIIIIIIIIIIIIIIAIIIIIIIIIIIIIIAII
IIIIIIIIIIIIIIIIIIIIIIIIIIIIIIIIIIIIIIIIIIIA2IIIIIIIIIIIIIIIIIII
IIIIIIIIIIIIIIIIIIIIIIIIIIIIIIIIIIIIIIIIIIIA2AI11IIIIIIIIIIIIIII
IIIIIIIIIIIIIIIIIIIIIIAI111IIIIIIIIIIIIIIIIIIIIIIIIIIIIIIIIIIIII
IIIIIIIIIIIIIIIIIIIIIIAI111IIIIIIIIIIIIIIIIIIIIIIIIIIIIIIIIAIIII
IIIIIIIIIAIIIIIIIIIIIIIIIIIIIIIIIIIIIIIIIIIIIIIIIIIIIIIIIIIIIIII
IIIIIIIIIAIIIIIIIIIIIIIIIIIIIIIIIIIIIIIIIIIIIIIIIIAI11IIIIIIIIII
IIIIIIIIIIIIIIIIIIIIIIIIIIIIIIIIIIIIIIIIIIIIIIIIIIIIIIIIIIIIIAII
IIIIIIIIIIIIIIIIIIIIIIIIIIIIIIIIIIIIIIIIIIIIIIAIIIIIIIIIIIIIIAII
IIIIIIIIIIIIIIIIIIIIIIIIIIIIIAIIIIIIIIIIIIIIIIAIIIIIIIIIIIIIIAII
IIIIIIIIIIIIIIIIIIIIIIAI1IIIIAIIIIIIIIIIIIIIIIAIIIIIIIIIIIIIIAII
IIIIIIIIIIIIIIIIIIIIIIAI1IIIIAIIIIIIIIIIIIIIIIAIIIIIIIIIIIIIIAAI
IIIIIIIIIIIIIIIIIIIIIIIIIIIIIIIIIIIIIIIIIIIA1I1111IIIIIIIIIIIIII
IAIIIIIIIIIIIIIIIIIIIIIIIIIIIIIIIIIIIIIIIIIA1I1111IIIIIIIIIIIIII
IAIIIIIIIIIIIIIIIIIIIIIIIIIIIIIIIIIIIIIIIIIA1A111111IIIIIIIIIIII
IIIIIIIIIIIIIIIIIIIIIIAIIIIIIIIIIIIIIIIIIIIIIIIIIIIIIIIIIIIIIIII
IIIIIIIIIIIIIIIIIIIIIIAIIIIIIIIIIIIIIIIIIIIIIIIIIIIIIIIIIIIIIAII
IIIIIIIIIAIIIIIIIIIIIIIIIIIIIIIIIIIIIIIIIIIIIIIIIIIIIIIIIIIIIIII
IIIIIIIIIAIIIIIIIIIIIIIIIIIIIIIIIIIIIIIIIIIIIIIIIIAIIIIIIIIIIIII
IIIIIIIIIIIIIIIIIIIIIIIIIIIIIIIIIIIIIIIIIIIIIIIIIIIIIIIIIIIIIAII
IIIIIIIIIIIIIIIIIIIIIIIIIIIIIIIIIIIIIIIIIIIIIIAIIIIIIIIIIIIIIAII
IIIIIIIIIIIIIIIIIIIIIIIIIIIIIIAIIIIIIIIIIIIIIIAIIIIIIIIIIIIIIAII
IIIIIIIIIIIIIIIIIIIIIIAIIIIIIIAIIIIIIIIIIIIIIIAIIIIIIIIIIIIIIAII
IIIIIIIIIIIIIIIIIIIIIIIIIIIIIIIIIIIIIIIIIIIIIIIIIIIIIIIIIIA2IIII
IIIA2IIIIIIIIIIIIIIIIIIIIIIIIIIIIIIIIIIIIIIIIIIIIIIIIIIIIIA2IIII
IIIA2IIIIIIIIIIIIIIIIIIIIIIIIIIIIIIIIIIIIIIIIAI111IIIIIIIIA2IIII
IIIIIIIIIIIIIIIIIIIIIIAIIIIIIIIIIIIIIIIIIIIIIIIIIIIIIIIIIIIIIIII
IIIIIIIIIIIIIIIIIIIIIIAIIIIIIIIIIIIIIIIIIIIIIIIIIIIIIIIIIIIIIAII
IIIIIIIIIAIIIIIIIIIIIIIIIIIIIIIIIIIIIIIIIIIIIIIIIIIIIIIIIIIIIIII
IIIIIIIIIAIIIIIIIIIIIIIIIIIIIIIIIIIIIIIIIIIIIIIIIIAIIIIIIIIIIIII
IIIIIIIIIIIIIIIIIIIIIIIIIIIIIIIIIIIIIIIIIIIIIIIIIIIIIIIIIIIIIAI1
IIIIIIIIIIIIIIIIIIIIIIIIIIIIIIIIIIIIIIIIIIIIIIAI1IIIIIIIIIIIIAI1
IIIIIIIIIIIIIIIIIIIIIIIIIIIIIIIIIAIIIIIIIIIIIIIIIIIIIIIIIIIIIIII
IIIIIIIIIIIIIIIIIIIIIIAIIIIIIIIIIAIIIIIIIIIIIIIIIIIIIIIIIIIIIIII
IIIIIIIIIIIIIIIIIIIIIIIIIIIIIIIIIIIIIIIIIIIIIIIIIIIIIIIIIIIIIAI1
IIIIAIIIIIIIIIIIIIIIIIIIIIIIIIIIIIIIIIIIIIIIIIIIIIIIIIIIIIIIIAI1
IIIIAIIIIIIIIIIIIIIIIIIIIIIIIIIIIIIIIIIIIIIIIAIIIIIIIIIIIIIIIAI1
IIIIIIIIIIIIIIIIIIIIIIAIIIIIIIIIIIIIIIIIIIIIIIIIIIIIIIIIIIIIIIII
IIIIIIIIIAIIIIIIIIIIIIIIIIIIIIIIIIIIIIIIIIIIIIIIIIIIIIIIIIIIIIII
IIIIIIIIIAIIIIIIIIIIIIIIIIIIIIIIIIIIIIIIIIIIIIIIIIAI1IIIIIIIIIII
IIIIIIIIIIIIIIIIIIIIIIIIIIIIIIIIIIIIIIIIIIIIIIIIIIIIIIIIIIIIIAI1
IIIIIIIIIIIIIIIIIIIIIIIIIIIIIIIIIIIIIIIIIIIIIIAIIIIIIIIIIIIIIAI1
IIIIIIIIIIIIIIIIIIIIIIIIIIIIIIIIIAI111IIIIIIIIAIIIIIIIIIIIIIIAI1
IIIIIIIIIIIIIIIIIIIIIIAIIIIIIIIIIAI111IIIIIIIIAIIIIIIIIIIIIIIAI1
IIIIIIIIIIIIIIIIIIIIIIIIIIIIIIIIIIIIIIIIIIIIIIIIIIIIIIIIIIIIIAII
IIIIAIIIIIIIIIIIIIIIIIIIIIIIIIIIIIIIIIIIIIIIIIIIIIIIIIIIIIIIIAII
IIIIAIIIIIIIIIIIIIIIIIIIIIIIIIIIIIIIIIIIIIIIIAIIIIIIIIIIIIIIIAII
IIIIIIIIIIIIIIIIIIIIIIAIIIIIIIIIIIIIIIIIIIIIIIIIIIIIIIIIIIIIIIII
IIIIIIIIIAIIIIIIIIIIIIIIIIIIIIIIIIIIIIIIIIIIIIIIIIIIIIIIIIIIIIII
IIIIIIIIIAIIIIIIIIIIIIIIIIIIIIIIIIIIIIIIIIIIIIIIIIAIIIIIIIIIIIII
IIIIIIIIIIIIIIIIIIIIIIIIIIIIIIIIIIIIIIIIIIIIIIIIIIIIIIIIIIIIIAII
IIIIIIIIIIIIIIIIIIIIIIIIIIIIIIIIIIIIIIIIIIIIIIAI1IIIIIIIIIIIIAII
IIIIIIIIIIIIIIIIIIIIIIIIIIIIIIIIIIIAIIIIIIIIIIAI1IIIIIIIIIIIIAII
IIIIIIIIIIIIIIIIIIIIIIAIIIIIIIIIIIIAIIIIIIIIIIAI1IIIIIIIIIIIIAII
IIIIIIIIIIIIIIIIIIIIIIAIIIIIIIIIIIIAIIIIIIIIIIAI1IIIIIIIIIIIIAAI
IIIIIIIIIIIIIIIIIIIIIIAIIIIIIIIIIIIAIIIIIIIIIIAI1IIIIIIIIIIIIAA1
IIIIIIIIIIIIIIIIIAIIIIIIIIIIIIIIIIIIIIIIIIIIIIIIIIIIIIIIIIIIIIII
IIIIIIIIIIIIIIIIIAIIIIIIIIIIIIIIIIIIIIIIIIIIIAIIIIIIIIIIIIIIIIII
IIIIIIIIIIIIIIIIIIIIIIAI1IIIIIIIIIIIIIIIIIIIIIIIIIIIIIIIIIIIIIII
IIIIIIIIIAI11IIIIIIIIIIIIIIIIIIIIIIIIIIIIIIIIIIIIIIIIIIIIIIIIIII
IIIIIIIIIAI11IIIIIIIIIIIIIIIIIIIIIIIIIIIIIIIIIIIIIAI1IIIIIIIIIII
IIIIIIIIIIIIIIIIIIIIIIIIIIIIIIIIIIIIIIIIIIIIIIIIIIIIIIIIIIIIIAII
IIIIIIIIIIIIIIIIIIIIIIIIIIIIIIIIIIIIIIIIIIIIIIAI1IIIIIIIIIIIIAII
IIIIIIIIIIIIIIIIIIIIIIIIIIIIIIIIIIIIIAIIIIIIIIAI1IIIIIIIIIIIIAII
IIIIIIIIIIIIIIIIIIIIIIAIIIIIIIIIIIIIIAIIIIIIIIAI1IIIIIIIIIIIIAII
IIIIIIIIIIIIIIIIIIIIIIAI11IIIIIIIIIIIIIIIIIIIIIIIIIIIIIIIIIIIIII
IIIIIIIIIIIIIIIIIIIIIIAI11IIIIIIIIIIIIIIIIIIIAIIIIIIIIIIIIIIIIII
IIIIIIIIIIIIIIIIIIIIIIAIIIIIIIIIIIIIIIIIIIIIIIIIIIIIIIIIIIIIIIII
IIIIIIIIIAIIIIIIIIIIIIIIIIIIIIIIIIIIIIIIIIIIIIIIIIIIIIIIIIIIIIII
IIIIIIIIIAIIIIIIIIIIIIIIIIIIIIIIIIIIIIIIIIIIIIIIIIAIIIIIIIIIIIII
IIIIIIIIIIIIIIIIIIIIIIIIIIIIIIIIIIIIIIIIIIIIIIIIIIIIIIIIIIIIIAII
IIIIIIIIIIIIIIIIIIIIIIIIIIIIIIIIIIIIIIIIIIIIIIAIIIIIIIIIIIIIIAII
IIIIIIIIIIIIIIIIIIIIIIIIIIIIIIIIIIIIIAI11IIIIIIIIIIIIIIIIIIIIIII
IIIIIIIIIIIIIIIIIIIIIIAI11IIIIIIIIIIIAI11IIIIIIIIIIIIIIIIIIIIIII
IIIIIIIIIIIIIIIIIIIIIIAI11IIIIIIIIIIIAI11IIIIIIIIIIIIIIIIIAIIIII
IIIIIIIIIIIIIIIIIIIIIIAI11IIIIIIIIIIIAI11IIIIIIIIIIIIIIIIIAAIIII
IIIIIIIIIIIIIIIIIIIIIIIIIIIAIIIIIIIIIIIIIIIIIIIIIIIIIIIIIIIIIIII
IIIIIIIIIIIIIIIIIIIIIIIIIIIAIIIIIIIIIIIIIIIIIAIIIIIIIIIIIIIIIIII
IIIIIIIIIIIIIIIIIIIIIIAIIIIIIIIIIIIIIIIIIIIIIIIIIIIIIIIIIIIIIIII
IIIIIIIIIAIIIIIIIIIIIIIIIIIIIIIIIIIIIIIIIIIIIIIIIIIIIIIIIIIIIIII
IIIIIIIIIAIIIIIIIIIIIIIIIIIIIIIIIIIIIIIIIIIIIIIIIIAIIIIIIIIIIIII
IIIIIIIIIIIIIIIIIIIIIIIIIIIIIIIIIIIIIIIIIIIIIIIIIIIIIIIIIIIIIAII
IIIIIIIIIIIIIIIIIIIIIIIIIIIIIIIIIIIIIIIIIIIIIIAI1IIIIIIIIIIIIAII
IIIIIIIIIIIIIIIIIIIIIIIIIIIIIIIIIIIIIAIIIIIIIIIIIIIIIIIIIIIIIIII
IIIIIIIIIIIIIIIIIIIIIIAIIIIIIIIIIIIIIAIIIIIIIIIIIIIIIIIIIIIIIIII
IIIIIIIIIIIIIIIIIIIIIIIIIIIIIIIIIIIIIAIIIIIIIIIIIIIIIIIIIIIIIIII
IIIIIIIIIIIIIIIIIIIIIIIIIIIIIIIIIIIIIAIIIIIIIAIIIIIIIIIIIIIIIIII
IIIIIIIIIIIIIIIIIIIIIIAIIIIIIIIIIIIIIIIIIIIIIIIIIIIIIIIIIIIIIIII
IIIIIIIIIAIIIIIIIIIIIIIIIIIIIIIIIIIIIIIIIIIIIIIIIIIIIIIIIIIIIIII
IIIIIIIIIAIIIIIIIIIIIIIIIIIIIIIIIIIIIIIIIIIIIIIIIIAIIIIIIIIIIIII
IIIIIIIIIIIIIIIIIIIIIIIIIIIIIIIIIIIIIIIIIIIIIIIIIIIIIIIIIIIIIAII
IIIIIIIIIIIIIIIIIIIIIIIIIIIIIIIIIIIIIIIIIIIIIIAIIIIIIIIIIIIIIAII
IIIIIIIIIIIIIIIIIIIIIIIIIIIIIIIIIIIIIAIIIIIIIIAIIIIIIIIIIIIIIAII
IIIIIIIIIIIIIIIIIIIIIIAIIIIIIIIIIIIIIAIIIIIIIIAIIIIIIIIIIIIIIAII
IIIIIIIIIIIIIIIIIIIIIIAIIIIIIIIIIIIIIAIIIIIIIIAIIIIIIIIIIIIIIAAI
IIIIIIIIIIIIIIIIIIIIIIAIIIIAIIIIIIIIIAIIIIIIIIAIIIIIIIIIIIIIIAAI
IIIIIIIIIIIIIIIIIIIIIIIIIIIIIIIIIIIIIIIIIIIAIIIIIIIIIIIIIIIIIIII
IIIIIIIIIIIIIIIIIIIIIIIIIIIIIIIIIIIIIIIIIIIAIA1I1IIIIIIIIIIIIIII
IIIIIIIIIIIIIIIIIIIIIIAIIIIIIIIIIIIIIIIIIIIIIIIIIIIIIIIIIIIIIIII
IIIIIIIIIAIIIIIIIIIIIIIIIIIIIIIIIIIIIIIIIIIIIIIIIIIIIIIIIIIIIIII
IIIIIIIIIAIIIIIIIIIIIIIIIIIIIIIIIIIIIIIIIIIIIIIIIIAI111IIIIIIIII
IIIIIIIIIIIIIIIIIIIIIIIIIIIIIIIIIIIIIIIIIIIIIIIIIIIIIIIIIIIIIAII
IIIIIIIIIIIIIIIIIIIIIIIIIIIIIIIIIIIIIIIIIIIIIIAIIIIIIIIIIIIIIAII
IIIIIIIIIIIIIIIIIIIIIIIIIIIIIIIIIIIIIAIIIIIIIIAIIIIIIIIIIIIIIAII
IIIIIIIIIIIIIIIIIIIIIIAIIIIIIIIIIIIIIAIIIIIIIIAIIIIIIIIIIIIIIAII
IIIIIIIIIIIIIIIIIIIIIIIIIIIIIIIIIIIIIIIIIIIIIIIIIIIIIIIIIIIIIAII
IIIIIIIIIIIIIIIIIIIIIIIIIIIIIIIIIIIIIIIIIIIIIAIIIIIIIIIIIIIIIAII
IIIIIIIIIIIIIIIIIIIIIIAIIIIIIIIIIIIIIIIIIIIIIIIIIIIIIIIIIIIIIIII
IIIIIIIIIAIIIIIIIIIIIIIIIIIIIIIIIIIIIIIIIIIIIIIIIIIIIIIIIIIIIIII
IIIIIIIIIAIIIIIIIIIIIIIIIIIIIIIIIIIIIIIIIIIIIIIIIIAIIIIIIIIIIIII
IIIIIIIIIIIIIIIIIIIIIIIIIIIIIIIIIIIIIIIIIIIIIIIIIIIIIIIIIIIIIAII
IIIIIIIIIIIIIIIIIIIIIIIIIIIIIIIIIIIIIIIIIIIIIIAIIIIIIIIIIIIIIAII
IIIIIIIIIIIIIIIIIIIIIIIIIIIIIIIIIIIIIAI1IIIIIIAIIIIIIIIIIIIIIAII
IIIIIIIIIIIIIIIIIIIIIIAIIIIIIIIIIIIIIAI1IIIIIIAIIIIIIIIIIIIIIAII
IIIIIIIIIIIIIIIIIIIIIIAIIIIIIIIIIIIIIAI1IIIIIIAIIIIIIIIIIIIIIAAI
IIIIIIIIIIIIIIIIIIIIIIAIIIIIIIIIIIIIIAI1IIIIIIAIIIIIIIIIIIIIIAA1
IIIIIIIIIIIIIIIIIIIIIIIIIIIIIIIIIIIIIIIIIIIIIAIIIIIIIIIIIIIIIIII
IIIIIIIIIIIIIIIIIIIIIIAI1IIIIIIIIIIIIIIIIIIIIIIIIIIIIIIIIIIIIIII
IIIIIIIIIAIIIIIIIIIIIIIIIIIIIIIIIIIIIIIIIIIIIIIIIIIIIIIIIIIIIIII
IIIIIIIIIAIIIIIIIIIIIIIIIIIIIIIIIIIIIIIIIIIIIIIIIIAII11IIIIIIIII
IIIIIIIIIIIIIIIIIIIIIIIIIIIIIIIIIIIIIIIIIIIIIIIIIIIIIIIIIIIIIAII
IIIIIIIIIIIIIIIIIIIIIIIIIIIIIIIIIIIIIIIIIIIIIIAIIIIIIIIIIIIIIAII
IIIIIIIIIIIIIIIIIIIIIIIIIIIIIIIIIIIIIAIIIIIIIIAIIIIIIIIIIIIIIAII
IIIIIIIIIIIIIIIIIIIIIIAIIIIIIIIIIIIIIAIIIIIIIIAIIIIIIIIIIIIIIAII
IIIIIIIIIIIIIIIIIIIIIIAIIIIIIIIIIIIIIAIIIIIIIIAIIIIIIIIIIIIIIAAI
IIIIIIIIIIIIIIIIIIIIIIAIIIIIIIIIIIIIIAIIIIIIIIAIIIIIIIIIIIIIIAA1
IIIIIIIIIIIIIIIIIIIIIIIIIIIIIIIIIIIIIIIIIIIIIAIIIIIIIIIIIIIIIIII
IIIIIIIIIIIIIIIIIIIIIIAIIIIIIIIIIIIIIIIIIIIIIIIIIIIIIIIIIIIIIIII
IIIIIIIIIAIIIIIIIIIIIIIIIIIIIIIIIIIIIIIIIIIIIIIIIIIIIIIIIIIIIIII
IIIIIIIIIAIIIIIIIIIIIIIIIIIIIIIIIIIIIIIIIIIIIIIIIIAIIIIIIIIIIIII
IIIIIIIIIIIIIIIIIIIIIIIIIIIIIIIIIIIIIIIIIIIIIIIIIIIIIIIIIIIIIAII
IIIIIIIIIIIIIIIIIIIIIIIIIIIIIIIIIIIIIIIIIIIIIIAI1IIIIIIIIIIIIAII
IIIIIIIIIIIIIIIIIIIIIIIIIIIIIIIIIIIIIAIIIIIIIIAI1IIIIIIIIIIIIAII
IIIIIIIIIIIIIIIIIIIIIIAIIIIIIIIIIIIIIAIIIIIIIIAI1IIIIIIIIIIIIAII
IIIIIIIIIIIIIIIIIIIIIIIIIIIIIIIIIIIIIIIIIIIIIAI1IIIIIIIIIIIIIIII
IIIIIIIIIIIIIIIIIIIIIIAI111IIIIIIIIIIIIIIIIIIIIIIIIIIIIIIIIIIIII
IIIIIIIIIAIIIIIIIIIIIIIIIIIIIIIIIIIIIIIIIIIIIIIIIIIIIIIIIIIIIIII
IIIIIIIIIAIIIIIIIIIIIIIIIIIIIIIIIIIIIIIIIIIIIIIIIIAIIIIIIIIIIIII
IIIIIIIIIIIIIIIIIIIIIIIIIIIIIIIIIIIIIIIIIIIIIIIIIIIIIIIIIIIIIAI1
IIIIIIIIIIIIIIIIIIIIIIIIIIIIIIIIIIIIIIIIIIIIIIAI11IIIIIIIIIIIAI1
IIIIIIIIIIIIIIIIIIIIIIIIIIIIIIIIIIIIIAIIIIIIIIAI11IIIIIIIIIIIAI1
IIIIIIIIIIIIIIIIIIIIIIAIIIIIIIIIIIIIIAIIIIIIIIAI11IIIIIIIIIIIAI1
IIIIIIIIIIIIIIIIIIIIIIIIIIIIIIIIIIIIIIIIIIIIIAI111IIIIIIIIIIIIII
IIIIIIIIIIIIIIIIIIIIIIAIIIIIIIIIIIIIIIIIIIIIIIIIIIIIIIIIIIIIIIII
IIIIIIIIIAIIIIIIIIIIIIIIIIIIIIIIIIIIIIIIIIIIIIIIIIIIIIIIIIIIIIII
IIIIIIIIIAIIIIIIIIIIIIIIIIIIIIIIIIIIIIIIIIIIIIIIIIAIIIIIIIIIIIII
IIIIIIIIIIIIIIIIIIIIIIIIIIIIIIIIIIIIIIIIIIIIIIIIIIIIIIIIIIIIIAII
IIIIIIIIIIIIIIIIIIIIIIIIIIIIIIIIIIIIIIIIIIIIIIAI11IIIIIIIIIIIAII
IIIIIIIIIIIIIIIIIIIIIIIIIIIIIIIIIIIIIAIIIIIIIIAI11IIIIIIIIIIIAII
IIIIIIIIIIIIIIIIIIIIIIAIIIIIIIIIIIIIIAIIIIIIIIAI11IIIIIIIIIIIAII
IIIIIIIIIIIIIIIIIIIIIIIIIIIIIIIIIIIIIIIIIIIIIIIIIIIIIIIIIIIIIA1I
IIIIIIIIIIIIIIIIIIIIIIIIIIIIIIIIIIIIIIIIIIIIIIIIIIIIIIIIIIIIIAA1
IIIIIIIIIIIIIIIIIIIIIIIIIIIIIIIIIIIIIA2IIIIIIIIIIIIIIIIIIIIIIAA1
IIIIIIIIIIIIIIIIIIIIIIA2IIIIIIIIIIIIIA2IIIIIIIIIIIIIIIIIIIIIIAA1
IIIIIIIIIIIIIIIIIIIIIIAA2IIIIIIIIIIIIA2IIIIIIIIIIIIIIIIIIIIIIAA1
IIIIIIIIIIIIIIIIIIIIIIAA2IIA2IIIIIIIIA2IIIIIIIIIIIIIIIIIIIIIIAA1
IIIIIIIIIIIIIIIIA1IIIIAA2IIA2IIIIIIIIA2IIIIIIIIIIIIIIIIIIIIIIAA1
IIIIIIIIIIIA1IIIA1IIIIAA2IIA2IIIIIIIIA2IIIIIIIIIIIIIIIIIIIIIIAA1
IIIIIIIIIIIA1IIIA1IIIIAA2IIA2IIIIIIIIA2IIIIIIIIIA2IIIIIIIIIIIAA1
IIIIIIIIIIIA1IIIA1IIIIAA2IIA2IIIIIIIIA2IIIIIIIIIAA2IIIIIIIIIIAA1
IIIIIIIIIIIA1IIIA1IIIIAA2IIA2IIIIA2IIA2IIIIIIIIIAA2IIIIIIIIIIAA1
IIIIIIIIIIIA1IIIA1IIIIAA2IIA2IIIIAA2IA2IIIIIIIIIAA2IIIIIIIIIIAA1
IIIIIIIIIIIA1IIIA1IIIIAA2IIA2IIIIAA2IA2IIIIA2IIIAA2IIIIIIIIIIAA1
IIIIIIIIIIIA1IIIA1IIIIAA2IIA2IIIIAA2IA2IIIIAA2IIAA2IIIIIIIIIIAA1
IIIIIIIIIIIA1IIIA1IIIIAA2IIA2IIIIAA2IA2IIIIAA2IIAA2IIIIIIIIIIAAA
IIIIIIIIIIIA1IIIA1IIIIAA2IIA2IA2IAA2IA2IIIIAA2IIAA2IIIIIIIIIIAAA
IIIIIIIIIIIA1IIIA1IIIIAA2IIA2IAA2AA2IA2IIIIAA2IIAA2IIIIIIIIIIAAA
IIIIIIIIIIIA1IIIA1IIIIAA2IIA2AAA2AA2IA2IIIIAA2IIAA2IIIIIIIIIIAAA
IIIIIIIIIIIA1IIIA1IIA2AA2IIA2AAA2AA2IA2IIIIAA2IIAA2IIIIIIIIIIAAA
IIIIIIIIIIIA1IIIA1IIAAAA2IIA2AAA2AA2IA2IIIIAA2IIAA2IIIIIIIIIIAAA
IIIIIIIIIIIA1IIIA1IIAAAA2IIA2AAA2AA2IA2IIIIAA2IIAA2IIIIIA2IIIAAA
IIIIIIIIIIIA1IIIA1IIAAAA2IIA2AAA2AA2IA2IIIIAA2IIAA2IIIIIAA2IIAAA
IIIIIIIIIIIA1IIIA1IIAAAA2IIA2AAA2AA2IA2IIIIAA2A1AA2IIIIIAA2IIAAA
IIIIIIIIIIIA1IIIA1IIAAAA2IIA2AAA2AA2IA2IIIIAA2AAAA22IIIIAA2IIAAA
IIIIIIIIIIIA1IIIA1IAAAAA2IIA2AAA2AA2IA2IIIIAA2AAAA22IIIIAA2IIAAA
IIIIIIIIIIIA1IIIA1IAAAAA2A1A2AAA2AA2IA2IIIIAA2AAAA22IIIIAA2IIAAA
IIIIIIIIIIIA1IIIA1IAAAAA2AAA2AAA2AA2IA2IIIIAA2AAAA22IIIIAA2IIAAA
IIIIIIIIIIIA1IIIA1IAAAAA2AAA2AAA2AAA1A22IIIAA2AAAA22IIIIAA2IIAAA
IIIIIIIIIIIA1IIIA1IAAAAA2AAA2AAA2AAAAA222IIAA2AAAA22IIIIAA2IIAAA
A1II2IIIIIIA1IIIA1IAAAAA2AAA2AAA2AAAAA222IIAA2AAAA22IIIIAA2IIAAA
A1II2IIIIIIA1IIIA1IAAAAA2AAA2AAA2AAAAAA12I2AA2AAAA22IIIIAA2IIAAA
A1II2IIIIIIA1IIIA1IAAAAA2AAA2AAA2AAAAAAA1I2AA2AAAA22IIIIAA2IIAAA
A1II2IIIIIIA1IIIA1IAAAAA2AAA2AAA2AAAAAAA1IAAA2AAAA22IIIIAA2IIAAA
A1IA1IIIIIIA1IIIA1IAAAAA2AAA2AAA2AAAAAAA1IAAA2AAAA22IIIIAA2IIAAA
A1IA1IA1211A1IIIA1IAAAAA2AAA2AAA2AAAAAAA1IAAA2AAAA22IIIIAA2IIAAA
A1IAA1A1111A1IIIA1IAAAAA2AAA2AAA2AAAAAAA1IAAA2AAAA22IIIIAA2IIAAA
A1IAA1A11A1A11IIA1IAAAAA2AAA2AAA2AAAAAAA1IAAA2AAAA22IIIIAA2IIAAA
A1IAA1AA1A1A11IIA1IAAAAA2AAA2AAA2AAAAAAA1IAAA2AAAA22IIIIAA2IIAAA
A1IAA1AAAA1A11IIA1IAAAAA2AAA2AAA2AAAAAAA1IAAA2AAAA22IIIIAA2IIAAA
AA1AA1AAAA1A11IIA1IAAAAA2AAA2AAA2AAAAAAA1IAAA2AAAA22IIIIAA2IIAAA
AA1AA1AAAA1A11IIA1IAAAAA2AAA2AAA2AAAAAAA1IAAA2AAAA22IIIIAAA12AAA
AA1AA1AAAA1A11IIA1IAAAAA2AAA2AAA2AAAAAAA1IAAA2AAAA22IIIAAAA12AAA
AA1AA1AAAA1A11IIA1IAAAAA2AAA2AAA2AAAAAAA1IAAA2AAAA2A1IIAAAA12AAA
AA1AA1AAAA1A11IIA1IAAAAA2AAA2AAA2AAAAAAA1IAAA2AAAA2AA1IAAAA12AAA
AA1AA1AAAA1A11IIA1IAAAAA2AAA2AAA2AAAAAAAA1AAA2AAAA2AA1IAAAA12AAA
AA1AA1AAAA1A11IIA1IAAAAAAAAA2AAA2AAAAAAAA1AAA2AAAA2AA1IAAAA12AAA
AA1AA1AAAA1A11IIA1IAAAAAAAAA2AAA2AAAAAAAA1AAA2AAAA2AAA1AAAA12AAA
AA1AA1AAAA1A11IIA1IAAAAAAAAA2AAAAAAAAAAAA1AAA2AAAA2AAA1AAAA12AAA
AA1AA1AAAA1AA1I1A1IAAAAAAAAA2AAAAAAAAAAAA1AAA2AAAA2AAA1AAAA12AAA
AA1AA1AAAA1AAA11A1IAAAAAAAAA2AAAAAAAAAAAA1AAA2AAAA2AAA1AAAA12AAA
AA1AA1AAAA1AAAA1A1IAAAAAAAAA2AAAAAAAAAAAA1AAA2AAAA2AAA1AAAA12AAA
AA1AA1AAAA1AAAA1AA1AAAAAAAAA2AAAAAAAAAAAA1AAA2AAAA2AAA1AAAA12AAA
AA1AA1AAAA1AAAA1AAAAAAAAAAAA2AAAAAAAAAAAA1AAA2AAAA2AAA1AAAA12AAA
AA1AA1AAAA1AAAA1AAAAAAAAAAAA2AAAAAAAAAAAA1AAA2AAAAAAAA1AAAA12AAA
AA1AA1AAAA1AAAA1AAAAAAAAAAAA2AAAAAAAAAAAA1AAA2AAAAAAAA1AAAAA1AAA
AA1AA1AAAA1AAAA1AAAAAAAAAAAA2AAAAAAAAAAAA1AAA2AAAAAAAA1AAAAAAAAA
AA1AA1AAAAAAAAA1AAAAAAAAAAAA2AAAAAAAAAAAA1AAA2AAAAAAAA1AAAAAAAAA
AA1AAAAAAAAAAAA1AAAAAAAAAAAA2AAAAAAAAAAAA1AAA2AAAAAAAA1AAAAAAAAA
AA1AAAAAAAAAAAA1AAAAAAAAAAAA2AAAAAAAAAAAA1AAAAAAAAAAAA1AAAAAAAAA
IIIIIIIIIIIIIIIIIIIIIIAIIIIIIIIIIIIIIIIIIIIIIIIIIIIIIIIIIIIIIIII
IIIIIIIIIAIIIIIIIIIIIIIIIIIIIIIIIIIIIIIIIIIIIIIIIIIIIIIIIIIIIIII
IIIIIIIIIAIIIIIIIIIIIIIIIIIIIIIIIIIIIIIIIIIIIIIIIIAIIIIIIIIIIIII
IIIIIIIIIIIIIIIIIIIIIIIIIIIIIIIIIIIIIIIIIIIIIIIIIIIIIIIIIIIIIAII
IIIIIIIIIIIIIIIIIIIIIIIIIIIIIIIIIIIIIIIIIIIIIIAIIIIIIIIIIIIIIAII
IIIIIIIIIIIIIIIIIIIIIIIIIIIIIIIIIIIIIAIIIIIIIIAIIIIIIIIIIIIIIAII
IIIIIIIIIIIIIIIIIIIIIIAI11IIIIIIIIIIIAIIIIIIIIAIIIIIIIIIIIIIIAII
IIIIIIIIIIIIIIIIIIIIIIIIIIIIIIIIIIIIIIIIIIIIIAI1IIIIIIIIIIIIIIII
IIIIIIIIIIIIIIIIIIIIIIAIIIIIIIIIIIIIIIIIIIIIIIIIIIIIIIIIIIIIIIII
IIIIIIIIIAI11IIIIIIIIIIIIIIIIIIIIIIIIIIIIIIIIIIIIIIIIIIIIIIIIIII
IIIIIIIIIAI11IIIIIIIIIIIIIIIIIIIIIIIIIIIIIIIIIIIIIAIIIIIIIIIIIII
IIIIIIIIIIIIIIIIIIIIIIIIIIIIIIIIIIIIIIIIIIIIIIIIIIIIIIIIIIIIIAII
IIIIIIIIIIIIIIIIIIIIIIIIIIIIIIIIIIIIIIIIIIIIIIAI1IIIIIIIIIIIIAII
IIIIIIIIIIIIIIIIIIIIIIIIIIIIIIIIIIIIIAIIIIIIIIAI1IIIIIIIIIIIIAII
IIIIIIIIIIIIIIIIIIIIIIAI11IIIIIIIIIIIAIIIIIIIIAI1IIIIIIIIIIIIAII
IIIIIIIIIIIIIIIIIIIIIIIIIIIIIIIIIIIIIIIIIIIIIIIIIIIIIIIIIIIAIIII
IIIIIIIIIIIIIIIIIIIIIIIIIIIIIIIIIIIIIIIIIIIIIAIIIIIIIIIIIIIIIIII
IIIIIIIIIIIIIIIIIIIIIIAIIIIIIIIIIIIIIIIIIIIIIIIIIIIIIIIIIIIIIIII
IIIIIIIIIAI111IIIIIIIIIIIIIIIIIIIIIIIIIIIIIIIIIIIIIIIIIIIIIIIIII
IIIIIIIIIAI111IIIIIIIIIIIIIIIIIIIIIIIIIIIIIIIIIIIIAIIIIIIIIIIIII
IIIIIIIIIIIIIIIIIIIIIIIIIIIIIIIIIIIIIIIIIIIIIIIIIIIIIIIIIIIIIAII
IIIIIIIIIIIIIIIIIIIIIIIIIIIIIIIIIIIIIIIIIIIIIIAIIIIIIIIIIIIIIAII
IIIIIIIIIIIIIIIIIIIIIIIIIIIIIIIIIIIIIAI111IIIIAIIIIIIIIIIIIIIAII
IIIIIIIIIIIIIIIIIIIIIIAI1IIIIIIIIIIIIAI111IIIIAIIIIIIIIIIIIIIAII
IIIIIIIIIIIIIIIIIIIIIIAI1IIIIIIIIIIIIAI111IIIIAIIIAI111IIIIIIAII
IIIIIIIIIIIIIIIIIIIIIIIIIIIIIIIIIIIIIIIIIIIIIAIIIIIIIIIIIIIIIIII
IIIIIIIIIIIIIIIIIIIIIIAIIIIIIIIIIIIIIIIIIIIIIIIIIIIIIIIIIIIIIIII
IIIIIIIIIAIIIIIIIIIIIIIIIIIIIIIIIIIIIIIIIIIIIIIIIIIIIIIIIIIIIIII
IIIIIIIIIAIIIIIIIIIIIIIIIIIIIIIIIIIIIIIIIIIIIIIIIIAIIIIIIIIIIIII
IIIIIIIIIIIIIIIIIIIIIIIIIIIIIIIIIIIIIIIIIIIIIIIIIIIIIIIIIIIIIAII
IIIIIIIIIIIIIIIIIIIIIIIIIIIIIIIIIIIIIIIIIIIIIIAI1IIIIIIIIIIIIAII
IIIIIIIIIIIIIIIIIIIIIIIIIIIIIIIIIIIIIAIIIIIIIIAI1IIIIIIIIIIIIAII
IIIIIIIIIIIIIIIIIIIIIIAI1IIIIIIIIIIIIAIIIIIIIIAI1IIIIIIIIIIIIAII
IIIIIIIIIIIIIIIIIIIIIIIIIIIIIIIIIIIIIIIIIIIIIAIIIIIIIIIIIIIIIIII
IIIIIIIIIIIIIIIIIIIIIIAIIIIIIIIIIIIIIIIIIIIIIIIIIIIIIIIIIIIIIIII
IIIIIIIIIAIIIIIIIIIIIIIIIIIIIIIIIIIIIIIIIIIIIIIIIIIIIIIIIIIIIIII
IIIIIIIIIAIIIIIIIIIIIIIIIIIIIIIIIIIIIIIIIIIIIIIIIIAIIIIIIIIIIIII
IIIIIIIIIIIIIIIIIIIIIIIIIIIIIIIIIIIIIIIIIIIIIIIIIIIIIIIIIIIIIAI1
IIIIIIIIIIIIIIIIIIIIIIIIIIIIIIIIIIIIIIIIIIIIIIAIIIIIIIIIIIIIIAI1
IIIIIIIIIIIIIIIIIIIIIIIIIIIIIIIIIIIIIAI1IIIIIIAIIIIIIIIIIIIIIAI1
IIIIIIIIIIIIIIIIIIIIIIAI1IIIIIIIIIIIIAI1IIIIIIAIIIIIIIIIIIIIIAI1
IIIIIIIIIIIIIIIIIIIIIIIIIIIIIIIIIIIIIIIIIIIIIIIIIIIIIIIIIIIAIIII
IIIIIIIIIIIIIIIIIIIIIIIIIIIIIIIIIIIIIIIIIIIIIAIIIIIIIIIIIIIIIIII
IIIIIIIIIIIIIIIIIIIIIIAIIIIIIIIIIIIIIIIIIIIIIIIIIIIIIIIIIIIIIIII
IIIIIIIIIAIIIIIIIIIIIIIIIIIIIIIIIIIIIIIIIIIIIIIIIIIIIIIIIIIIIIII
IIIIIIIIIAIIIIIIIIIIIIIIIIIIIIIIIIIIIIIIIIIIIIIIIIAIIIIIIIIIIIII
IIIIIIIIIIIIIIIIIIIIIIIIIIIIIIIIIIIIIIIIIIIIIIIIIIIIIIIIIIIIIAII
IIIIIIIIIIIIIIIIIIIIIIIIIIIIIIIIIIIIIIIIIIIIIIAIIIIIIIIIIIIIIAII
IIIIIIIIIIIIIIIIIIIIIIIIIIIIIIIIIIIIIAIIIIIIIIAIIIIIIIIIIIIIIAII
IIIIIIIIIIIIIIIIIIIIIIAIIIIIIIIIIIIIIAIIIIIIIIAIIIIIIIIIIIIIIAII
IIIIIIIAI1111IIIIIIIIIAIIIIIIIIIIIIIIAIIIIIIIIAIIIIIIIIIIIIIIAII
IIIIIIIAA1111IIIIIIIIIAIIIIIIIIIIIIIIAIIIIIIIIAIIIIIIIIIIIIIIAII
IIIIIIIIIIIIIIIIIIIIIIIIIIIIIIIIIIIIIIIIIIIIIAI1IIIIIIIIIIIIIIII
IIIIIIIIIIIIIIIIIIIIIIAI1IIIIIIIIIIIIIIIIIIIIIIIIIIIIIIIIIIIIIII
IIIIIIIIIAIIIIIIIIIIIIIIIIIIIIIIIIIIIIIIIIIIIIIIIIIIIIIIIIIIIIII
IIIIIIIIIAIIIIIIIIIIIIIIIIIIIIIIIIIIIIIIIIIIIIIIIIAIIIIIIIIIIIII
IIIIIIIIIIIIIIIIIIIIIIIIIIIIIIIIIIIIIIIIIIIIIIIIIIIIIIIIIIIIIAII
IIIIIIIIIIIIIIIIIIIIIIIIIIIIIIIIIIIIIIIIIIIIIIAIIIIIIIIIIIIIIAII
IIIIIIIIIIIIIIIIIIIIIIIIIIIIIIIIIIIIIAIIIIIIIIAIIIIIIIIIIIIIIAII
IIIIIIIIIIIIIIIIIIIIIIAIIIIIIIIIIIIIIAIIIIIIIIAIIIIIIIIIIIIIIAII
IIIIIIIIIIIIIIIIIIIIIIIIIIIIIIIIIIIIIIIIIIIIIAIIIIIIIIIIIIIIIIII
IIIIIIIIIIIIIIIIIIIIIIAIIIIIIIIIIIIIIIIIIIIIIIIIIIIIIIIIIIIIIIII
IIIIIIIIIAI11IIIIIIIIIIIIIIIIIIIIIIIIIIIIIIIIIIIIIIIIIIIIIIIIIII
IIIIIIIIIAI11IIIIIIIIIIIIIIIIIIIIIIIIIIIIIIIIIIIIIAI1IIIIIIIIIII
IIIIIIIIIIIIIIIIIIIIIIIIIIIIIIIIIIIIIIIIIIIIIIIIIIIIIIIIIIIIIAI1
IIIIIIIIIIIIIIIIIIIIIIIIIIIIIIIIIIIIIIIIIIIIIIAIIIIIIIIIIIIIIAI1
IIIIIIIIIIIIIIIIIIIIIIIIIIIIIIIIIIIIIAIIIIIIIIAIIIIIIIIIIIIIIAI1
IIIIIIIIIIIIIIIIIIIIIIAI1IIIIIIIIIIIIAIIIIIIIIAIIIIIIIIIIIIIIAI1
IIIIIIIIIAIIIIIIIIIIIIAI1IIIIIIIIIIIIAIIIIIIIIAIIIIIIIIIIIIIIAI1
IIIIIIIIIAAIIIIIIIIIIIAI1IIIIIIIIIIIIAIIIIIIIIAIIIIIIIIIIIIIIAI1
IIIIIAIIIAAIIIIIIIIIIIAI1IIIIIIIIIIIIAIIIIIIIIAIIIIIIIIIIIIIIAI1
IIIIIAAIIAAIIIIIIIIIIIAI1IIIIIIIIIIIIAIIIIIIIIAIIIIIIIIIIIIIIAI1
IIIIAAAIIAAIIIIIIIIIIIAI1IIIIIIIIIIIIAIIIIIIIIAIIIIIIIIIIIIIIAI1
IIIIIIIIIIIIIIIIIIIIIIIIIIIIIIIIIIIIIIIIIIIIIAIIIIIIIIIIIIIIIIII
IIIIIIIIIIIIIIIIIIIIIIAIIIIIIIIIIIIIIIIIIIIIIIIIIIIIIIIIIIIIIIII
IIIIIIIIIAIIIIIIIIIIIIIIIIIIIIIIIIIIIIIIIIIIIIIIIIIIIIIIIIIIIIII
IIIIIIIIIAIIIIIIIIIIIIIIIIIIIIIIIIIIIIIIIIIIIIIIIIAIIIIIIIIIIIII
IIIIIIIIIIIIIIIIIIIIIIIIIIIIIIIIIIIIIIIIIIIIIIIIIIIIIIIIIIIIIAII
IIIIIIIIIIIIIIIIIIIIIIIIIIIIIIIIIIIIIIIIIIIIIIAII11IIIIIIIIIIAII
IIIIIIIIIIIIIIIIIIIIIIIIIIIIIIIIIIIIIAII1IIIIIAII11IIIIIIIIIIAII
IIIIIIIIIIIIIIIIIIIIIIAIIIIIIIIIIIIIIAII1IIIIIAII11IIIIIIIIIIAII
IIIIIIIIIIIIIIIIIIIIIIIIIIIIIIIIIIIIIIIIIIIIIAIIIIIIIIIIIIIIIIII
IIIIIIIIIIIIIIIIIIIIIIAIIIIIIIIIIIIIIIIIIIIIIIIIIIIIIIIIIIIIIIII
IIIIIIIIIAIIIIIIIIIIIIIIIIIIIIIIIIIIIIIIIIIIIIIIIIIIIIIIIIIIIIII
IIIIIIIIIAIIIIIIIIIIIIIIIIIIIIIIIIIIIIIIIIIIIIIIIIAIIIIIIIIIIIII
IIIIIIIIIIIIIIIIIIIIIIIIIIIIIIIIIIIIIIIIIIIIIIIIIIIIIIIIIIIIIAII
IIIIIIIIIIIIIIIIIIIIIIIIIIIIIIIIIIIIIIIIIIIIIIAIIIIIIIIIIIIIIAII
IIIIIIIIIIIIIIIIIIIIIIIIIIIIIIIIIIIIIAIIIIIIIIAIIIIIIIIIIIIIIAII
IIIIIIIIIIIIIIIIIIIIIIAII11IIIIIIIIIIAIIIIIIIIAIIIIIIIIIIIIIIAII
IIIIIIAIIIIIIIIIIIIIIIIIIIIIIIIIIIIIIIIIIIIIIIIIIIIIIIIIIIIIIIII
IIIIIIAIIIIIIIIIIIIIIIIIIIIIIIIIIIIIIIIIIIIIIAIIIIIIIIIIIIIIIIII
IIIIIIIIIIIIIIIIIIIIIIAIIIIIIIIIIIIIIIIIIIIIIIIIIIIIIIIIIIIIIIII
IIIIIIIIIAIIIIIIIIIIIIIIIIIIIIIIIIIIIIIIIIIIIIIIIIIIIIIIIIIIIIII
IIIIIIIIIAIIIIIIIIIIIIIIIIIIIIIIIIIIIIIIIIIIIIIIIIAIIIIIIIIIIIII
IIIIIIIIIIIIIIIIIIIIIIIIIIIIIIIIIIIIIIIIIIIIIIIIIIIIIIIIIIIIIAII
IIIIIIIIIIIIIIIIIIIIIIIIIIIIIIIIIIIIIIIIIIIIIIAIIIIIIIIIIIIIIAII
IIIIIIIIIIIIIIIIIIIIIIIIIIIIIIIIIIIIIAI11IIIIIAIIIIIIIIIIIIIIAII
IIIIIIIIIIIIIIIIIIIIIIAI1IIIIIIIIIIIIAI11IIIIIAIIIIIIIIIIIIIIAII
IIIIIIIIIAIIIIIIIIIIIIIIIIIIIIIIIIIIIIIIIIIIIIIIIIIIIIIIIIIIIIII
IIIIIIIIIAIIIIIIIIIIIIIIIIIIIIIIIIIIIIIIIIIIIA1IIIIIIIIIIIIIIIII
IIIIIIIIIIIIIIIIIIIIIIAI1111111111IIIIIIIIIIIIIIIIIIIIIIIIIIIIII
IIIIIIIIIAIIIIIIIIIIIIAI1111111111IIIIIIIIIIIIIIIIIIIIIIIIIIIIII
IIIIIIIIIAIIIIIIIIIIIIAI1111111111IIIIIIIIIIIIIIIIAIIIIIIIIIIIII
IIIIIIIIIIIIIIIIIIIIIIIIIIIIIIIIIIIIIIIIIIIIIIIIIIIIIIIIIIIIIAII
IIIIIIIIIIIIIIIIIIIIIIIIIIIIIIIIIIIIIIIIIIIIIIAIIIIIIIIIIIIIIAII
IIIIIIIIIIIIIIIIIIIIIIIIIIIIIIIIIIIIIAIIIIIIIIAIIIIIIIIIIIIIIAII
IIIIIIIIIIIIIIIIIIIIIIAI1IIIIIIIIIIIIAIIIIIIIIAIIIIIIIIIIIIIIAII
IIIIIIIIIIIAIIIIIIIIIIIIIIIIIIIIIIIIIIIIIIIIIIIIIIIIIIIIIIIIIIII
IIIIIIIIIIIAIIIIIIIIIIIIIIIIIIIIIIIIIIIIIIIIIAI11IIIIIIIIIIIIIII
IIIIIIIIIIIIIIIIIIIIIIAI1IIIIIIIIIIIIIIIIIIIIIIIIIIIIIIIIIIIIIII
IIIIIIIIIAIIIIIIIIIIIIAI1IIIIIIIIIIIIIIIIIIIIIIIIIIIIIIIIIIIIIII
IIIIIIIIIAIIIIIIIIIIIIAI1IIIIIIIIIIIIIIIIIIIIIIIIIAIIIIIIIIIIIII
IIIIIIIIIIIIIIIIIIIIIIIIIIIIIIIIIIIIIIIIIIIIIIIIIIIIIIIIIIIIIAII
IIIIIIIIIIIIIIIIIIIIIIIIIIIIIIIIIIIIIIIIIIIIIIAII1IIIIIIIIIIIAII
IIIIIIIIIIIIIIIIIIIIIIIIIIIIIIIIIIIIIAII11IIIIAII1IIIIIIIIIIIAII
IIIIIIIIIIIIIIIIIIIIIIAIIIIIIIIIIIIIIAII11IIIIAII1IIIIIIIIIIIAII
IIIIIIIIIIIIIIIIIIIIIIA1IIIIIIIIIIIIIIIIIIIIIIIIIIIIIIIIIIIIIIII
IIIIIIIIIIIIIIIIIIIIIIA1IIIIIIIIIIIIIIIIIIIIIAI11IIIIIIIIIIIIIII
IIIIAIIIIIIIIIIIIIIIIIA1IIIIIIIIIIIIIIIIIIIIIAI11IIIIIIIIIIIIIII
IIIIIIIIIIIIIIIIIIIIIIAI1IIIIIIIIIIIIIIIIIIIIIIIIIIIIIIIIIIIIIII
IIIIIIIIIAI11IIIIIIIIIIIIIIIIIIIIIIIIIIIIIIIIIIIIIIIIIIIIIIIIIII
IIIIIIIIIAI11IIIIIIIIIIIIIIIIIIIIIIIIIIIIIIIIIIIIIAIIIIIIIIIIIII
IIIIIIIIIIIIIIIIIIIIIIIIIIIIIIIIIIIIIIIIIIIIIIIIIIIIIIIIIIIIIAII
IIIIIIIIIIIIIIIIIIIIIIIIIIIIIIIIIIIIIIIIIIIIIIAIIIIIIIIIIIIIIAII
IIIIIIIIIIIIIIIIIIIIIIIIIIIIIIIIIIIIIAI11IIIIIAIIIIIIIIIIIIIIAII
IIIIIIIIIIIIIIIIIIIIIIAI1IIIIIIIIIIIIAI11IIIIIAIIIIIIIIIIIIIIAII
IIIIIIIIIIIIIIIIIIIIIIIIIIIAI1111IIIIIIIIIIIIIIIIIIIIIIIIIIIIIII
IIIIIIIIIIIIIIIIIIIIIIIIIIIAI1111IIIIIIIIIIIIAI11IIIIIIIIIIIIIII
IIIIIIIIIIIIIIAIIIIIIIIIIIIAI1111IIIIIIIIIIIIAI11IIIIIIIIIIIIIII
IIIIIIIIIIIIIIIIIIIIIIAI1IIIIIIIIIIIIIIIIIIIIIIIIIIIIIIIIIIIIIII
IIIIIIIIIAIIIIIIIIIIIIIIIIIIIIIIIIIIIIIIIIIIIIIIIIIIIIIIIIIIIIII
IIIIIIIIIAIIIIIIIIIIIIIIIIIIIIIIIIIIIIIIIIIIIIIIIIAIIIIIIIIIIIII
IIIIIIIIIIIIIIIIIIIIIIIIIIIIIIIIIIIIIIIIIIIIIIIIIIIIIIIIIIIIIAII
IIIIIIIIIIIIIIIIIIIIIIIIIIIIIIIIIIIIIIIIIIIIIIAIIIIIIIIIIIIIIAII
IIIIIIIIIIIIIIIIIIIIIIIIIIIIIIIIIIIIIAI1IIIIIIAIIIIIIIIIIIIIIAII
IIIIIIIIIIIIIIIIIIIIIIAIIIIIIIIIIIIIIAI1IIIIIIAIIIIIIIIIIIIIIAII
IIIIIIIIIIIIIIIIIIIIIIIIIIIIIAIIIIIIIIIIIIIIIIIIIIIIIIIIIIIIIIII
IIIIIIIIIIIIIIIIIIIIIIIIIIIIIAIIIIIIIIIIIIIIIAIIIIIIIIIIIIIIIIII
IIIIIIIIIIIIIIIIIIIIIIIIIAI11A111IIIIIIIIIIIIAIIIIIIIIIIIIIIIIII
IIIIIIIIIIIIIIIIIIIIIIAIIIIIIIIIIIIIIIIIIIIIIIIIIIIIIIIIIIIIIIII
IIIIIIIIIAI1IIIIIIIIIIIIIIIIIIIIIIIIIIIIIIIIIIIIIIIIIIIIIIIIIIII
IIIIIIIIIAI1IIIIIIIIIIIIIIIIIIIIIIIIIIIIIIIIIIIIIIAIIIIIIIIIIIII
IIIIIIIIIIIIIIIIIIIIIIIIIIIIIIIIIIIIIIIIIIIIIIIIIIIIIIIIIIIIIAII
IIIIIIIIIIIIIIIIIIIIIIIIIIIIIIIIIIIIIIIIIIIIIIAIIIIIIIIIIIIIIAII
IIIIIIIIIIIIIIIIIIIIIIIIIIIIIIIIIIIIIAI11IIIIIAIIIIIIIIIIIIIIAII
IIIIIIIIIIIIIIIIIIIIIIAIIIIIIIIIIIIIIAI11IIIIIAIIIIIIIIIIIIIIAII
IIIIIIIIIIIIIIIIIIIIIIIIIIIIIAIIIIIIIIIIIIIIIIIIIIIIIIIIIIIIIIII
IIIIIIIIIIIIIIIIIIIIIIIIIIIIIAIIIIIIIIIIIIIIIAI1IIIIIIIIIIIIIIII
IIIIIIIIIIIIIIIIIIIIIIIIIAI1IAIIIIIIIIIIIIIIIAI1IIIIIIIIIIIIIIII
IIIIIIIIIIIIIIIIIIIIIIAIIIIIIIIIIIIIIIIIIIIIIIIIIIIIIIIIIIIIIIII
IIIIIIIIIAIIIIIIIIIIIIIIIIIIIIIIIIIIIIIIIIIIIIIIIIIIIIIIIIIIIIII
IIIIIIIIIAIIIIIIIIIIIIIIIIIIIIIIIIIIIIIIIIIIIIIIIIAIIIIIIIIIIIII
IIIIIIIIIIIIIIIIIIIIIIIIIIIIIIIIIIIIIIIIIIIIIIIIIIIIIIIIIIIIIAII
IIIIIIIIIIIIIIIIIIIIIIIIIIIIIIIIIIIIIIIIIIIIIIAIIIIIIIIIIIIIIAII
IIIIIIIIIIIIIIIIIIIIIIIIIIIIIIIIIIIIIAIIIIIIIIAIIIIIIIIIIIIIIAII
IIIIIIIIIIIIIIIIIIIIIIAI1IIIIIIIIIIIIAIIIIIIIIAIIIIIIIIIIIIIIAII
IIIIIIIIIIIIIIIIIIIIIIIIIIIIIIIIIA1IIIIIIIIIIIIIIIIIIIIIIIIIIIII
IIIIIIIIIIIIIIIIIIIIIIIIIIIIIIIIIA1IIIIIIIIIIAIIIIIIIIIIIIIIIIII
IIIIIIIIIIIIIIIIIIIIIIIIIAI1IIIIIA1IIIIIIIIIIAIIIIIIIIIIIIIIIIII
IIIIIIIIIIIIIIIIIIIIIIAIIIIIIIIIIIIIIIIIIIIIIIIIIIIIIIIIIIIIIIII
IIIIIIIIIAI111IIIIIIIIIIIIIIIIIIIIIIIIIIIIIIIIIIIIIIIIIIIIIIIIII
IIIIIIIIIAI111IIIIIIIIIIIIIIIIIIIIIIIIIIIIIIIIIIIIAIIIIIIIIIIIII
IIIIIIIIIIIIIIIIIIIIIIIIIIIIIIIIIIIIIIIIIIIIIIIIIIIIIIIIIIIIIAII
IIIIIIIIIIIIIIIIIIIIIIIIIIIIIIIIIIIIIIIIIIIIIIAI11IIIIIIIIIIIAII
IIIIIIIIIIIIIIIIIIIIIIIIIIIIIIIIIIIIIAI111111IAI11IIIIIIIIIIIAII
IIIIIIIIIIIIIIIIIIIIIIAIIIIIIIIIIIIIIAI111111IAI11IIIIIIIIIIIAII
IIIIIIIIIIIIIIIIIIIIIIIIIIIIIIIIIIIIIIIIA1I1IIIIIIIIIIIIIIIIIIII
IIIIIIIIIIIIIIIIIIIIIIIIIIIIIIIIIIIIIIIIA1I1IIIIIIAIIIIIIIIIIIII
IIIIIIIIIIIIIIIIIIIIIIIIIA1IIIIIIIIIIIIIA1I1IIIIIIAIIIIIIIIIIIII
IIIIIIIIIIIIIIIIIIIIIIAIIIIIIIIIIIIIIIIIIIIIIIIIIIIIIIIIIIIIIIII
IIIIIIIIIAIIIIIIIIIIIIIIIIIIIIIIIIIIIIIIIIIIIIIIIIIIIIIIIIIIIIII
IIIIIIIIIAIIIIIIIIIIIIIIIIIIIIIIIIIIIIIIIIIIIIIIIIAIIIIIIIIIIIII
IIIIIIIIIIIIIIIIIIIIIIIIIIIIIIIIIIIIIIIIIIIIIIIIIIIIIIIIIIIIIAI1
IIIIIIIIIIIIIIIIIIIIIIIIIIIIIIIIIIIIIIIIIIIIIIAIIIIIIIIIIIIIIAI1
IIIIIIIIIIIIIIIIIIIIIIIIIIIIIIIIIIIIIAIIIIIIIIAIIIIIIIIIIIIIIAI1
IIIIIIIIIIIIIIIIIIIIIIAIIIIIIIIIIIIIIAIIIIIIIIAIIIIIIIIIIIIIIAI1
IIIIIIIIIA1I1IIIIIIIIIAIIIIIIIIIIIIIIAIIIIIIIIAIIIIIIIIIIIIIIAI1
IIIIIIIIIAAI1IIIIIIIIIAIIIIIIIIIIIIIIAIIIIIIIIAIIIIIIIIIIIIIIAI1
IIIIIA1I1AA11IIIIIIIIIAIIIIIIIIIIIIIIAIIIIIIIIAIIIIIIIIIIIIIIAI1
IIIIIAA11AA11IIIIIIIIIAIIIIIIIIIIIIIIAIIIIIIIIAIIIIIIIIIIIIIIAI1
IIIIAAA11AA11IIIIIIIIIAIIIIIIIIIIIIIIAIIIIIIIIAIIIIIIIIIIIIIIAI1
IIIIAAA11AA111IIIIIIIIAIIIIIIIIIIIIIIAIIIIIIIIAIIIIIIIIIIIIIIAI1
IIIIAAA11AA1112IIIIIIIAIIIIIIIIIIIIIIAIIIIIIIIAIIIIIIIIIIIIIIAI1
IIIIIIIIIIIIIIIIIIIIIIIIIIIIIIIIIIIIIIIIIIIIIIIIIIA2IIIIIIIIIIII
IIIIIIIIIIIIIIIIIIIIIIIIIIIIIIIIIIIIIIIIIIIIIIIIIIA2IAI11IIIIIII
IIIIIIIIIIIIIIIIIIIIIIIIIAI1IIIIIIIIIIIIIIIIIIIIIIA2IAI11IIIIIII
IIIIIIIIIIIIIIIIIIIIIIAIIIIIIIIIIIIIIIIIIIIIIIIIIIIIIIIIIIIIIIII
IIIIIIIIIAIIIIIIIIIIIIIIIIIIIIIIIIIIIIIIIIIIIIIIIIIIIIIIIIIIIIII
IIIIIIIIIAIIIIIIIIIIIIIIIIIIIIIIIIIIIIIIIIIIIIIIIIAII1IIIIIIIIII
IIIIIIIIIIIIIIIIIIIIIIIIIIIIIIIIIIIIIIIIIIIIIIIIIIIIIIIIIIIIIAII
IIIIIIIIIIIIIIIIIIIIIIIIIIIIIIIIIIIIIIIIIIIIIIAI11IIIIIIIIIIIAII
IIIIIIIIIIIIIIIIIIIIIIIIIIIIIIIIIIIIIAI11IIIIIAI11IIIIIIIIIIIAII
IIIIIIIIIIIIIIIIIIIIIIAIIIIIIIIIIIIIIAI11IIIIIAI11IIIIIIIIIIIAII
IIIIIIIIIIIIIIIIIIIIIIIIIIIIIIIIIIIIIIIIIIIIIIIIIIAIIIIIIIIIIIII
IIIIIIIIIIIIIIIIIIIIIIIIIIIIIIIIIIIIIIIIIIIIIIIIIIAIIIIIIIAIIIII
IIIIIIIIIIIIIIIIIIIIIIIIIAIIIIIIIIIIIIIIIIIIIIIIIIAIIIIIIIAIIIII
IIIIIIIIIIIIIIIIIIIIIIAI11IIIIIIIIIIIIIIIIIIIIIIIIIIIIIIIIIIIIII
IIIIIIIIIAIIIIIIIIIIIIIIIIIIIIIIIIIIIIIIIIIIIIIIIIIIIIIIIIIIIIII
IIIIIIIIIAIIIIIIIIIIIIIIIIIIIIIIIIIIIIIIIIIIIIIIIIAIIIIIIIIIIIII
IIIIIIIIIIIIIIIIIIIIIIIIIIIIIIIIIIIIIIIIIIIIIIIIIIIIIIIIIIIIIAII
IIIIIIIIIIIIIIIIIIIIIIIIIIIIIIIIIIIIIIIIIIIIIIAI1IIIIIIIIIIIIAII
IIIIIIIIIIIIIIIIIIIIIIIIIIIIIIIIIIIIIAIIIIIIIIAI1IIIIIIIIIIIIAII
IIIIIIIIIIIIIIIIIIIIIIAIIIIIIIIIIIIIIAIIIIIIIIAI1IIIIIIIIIIIIAII
IIIIIIIIIIIIIIIIIIIIIIIIIIIIIIIIIIIIIIIIIIIIIIIIIIIIIAIIIIIIIIII
IIIIIIIIIIIIIIIIIIIIIIIIIIIIIIIIIIIIIIIIIIIIIIIIIIIIIAIIIIIAIIII
IIIIIIIIIIIIIIIIIIIIIIIIIAIIIIIIIIIIIIIIIIIIIIIIIIIIIAIIIIIAIIII
IIIIIIIIIIIIIIIIIIIIIIAIIIIIIIIIIIIIIIIIIIIIIIIIIIIIIIIIIIIIIIII
IIIIIIIIIAIIIIIIIIIIIIIIIIIIIIIIIIIIIIIIIIIIIIIIIIIIIIIIIIIIIIII
IIIIIIIIIAIIIIIIIIIIIIIIIIIIIIIIIIIIIIIIIIIIIIIIIIAIIIIIIIIIIIII
IIIIIIIIIIIIIIIIIIIIIIIIIIIIIIIIIIIIIIIIIIIIIIIIIIIIIIIIIIIIIAI1
IIIIIIIIIIIIIIIIIIIIIIIIIIIIIIIIIIIIIIIIIIIIIIAI1111IIIIIIIIIAI1
IIIIIIIIIIIIIIIIIIIIIIIIIIIIIIIIIIIIIAIIIIIIIIAI1111IIIIIIIIIAI1
IIIIIIIIIIIIIIIIIIIIIIAIIIIIIIIIIIIIIAIIIIIIIIAI1111IIIIIIIIIAI1
IIIIIIIIIIIIIIIIIIIIIIIIIIIIIIIIIIIIIIIIIIIIIIIIIIIIIAIIIIIIIIII
IIIIIIIIIIIIIIIIIIIIIIIIIIIIIIIIIIIIIIIIIIIIIIIIIIIIIAIIIIIIIAI1
IIIIIIIIIIIIIIIIIIIIIIIIIAIIIIIIIIIIIIIIIIIIIIIIIIIIIAIIIIIIIAI1
IIIIIIIIIIIIIIIIIIIIIIAIIIIIIIIIIIIIIIIIIIIIIIIIIIIIIIIIIIIIIIII
IIIIIIIIIAIIIIIIIIIIIIIIIIIIIIIIIIIIIIIIIIIIIIIIIIIIIIIIIIIIIIII
IIIIIIIIIAIIIIIIIIIIIIIIIIIIIIIIIIIIIIIIIIIIIIIIIIAIIIIIIIIIIIII
IIIIIIIIIIIIIIIIIIIIIIIIIIIIIIIIIIIIIIIIIIIIIIIIIIIIIIIIIIIIIAI1
IIIIIIIIIIIIIIIIIIIIIIIIIIIIIIIIIIIIIIIIIIIIIIAI1IIIIIIIIIIIIAI1
IIIIIIIIIIIIIIIIIIIIIIIIIIIIIIIIIIIIIAIIIIIIIIAI1IIIIIIIIIIIIAI1
IIIIIIIIIIIIIIIIIIIIIIAIIIIIIIIIIIIIIAIIIIIIIIAI1IIIIIIIIIIIIAI1
IIIIIIIIIAI1111IIIIIIIAIIIIIIIIIIIIIIAIIIIIIIIAI1IIIIIIIIIIIIAI1
IIIIIIIIIAA1111IIIIIIIAIIIIIIIIIIIIIIAIIIIIIIIAI1IIIIIIIIIIIIAI1
IIIIIIIIIAA11111IIIIIIAIIIIIIIIIIIIIIAIIIIIIIIAI1IIIIIIIIIIIIAI1
IIIIIAI1IAA11111IIIIIIAIIIIIIIIIIIIIIAIIIIIIIIAI1IIIIIIIIIIIIAI1
IIIIIAA1IAA11111IIIIIIAIIIIIIIIIIIIIIAIIIIIIIIAI1IIIIIIIIIIIIAI1
IIIIAAA1IAA11111IIIIIIAIIIIIIIIIIIIIIAIIIIIIIIAI1IIIIIIIIIIIIAI1
IIIIAAA1IAA11111111IIIAIIIIIIIIIIIIIIAIIIIIIIIAI1IIIIIIIIIIIIAI1
IIIIAAA11AA11111111IIIAIIIIIIIIIIIIIIAIIIIIIIIAI1IIIIIIIIIIIIAI1
IIIIIIIIIIIIIIIIIIIIIIIIIIIIIIIIIIIIIIIIIIIIIIIIIIIIIIIIAIIIIIII
IIIIIIIIIIIIIIIIIIIIIIIIIIIIIIIIIIIIIIIIIIIIIIIIIIIIIIIIAIIIIAII
IIIIIIIIIIIIIIIIIIIIIIIIIAIIIIIIIIIIIIIIIIIIIIIIIIIIIIIIAIIIIAII
IIIIIIIIIIIIIIIIIIIIIIAIIIIIIIIIIIIIIIIIIIIIIIIIIIIIIIIIIIIIIIII
IIIIIIIIIAI1IIIIIIIIIIIIIIIIIIIIIIIIIIIIIIIIIIIIIIIIIIIIIIIIIIII
IIIIIIIIIAI1IIIIIIIIIIIIIIIIIIIIIIIIIIIIIIIIIIIIIIAI111IIIIIIIII
IIIIIIIIIIIIIIIIIIIIIIIIIIIIIIIIIIIIIIIIIIIIIIIIIIIIIIIIIIIIIAII
IIIIIIIIIIIIIIIIIIIIIIIIIIIIIIIIIIIIIIIIIIIIIIAIIIIIIIIIIIIIIAII
IIIIIIIIIIIIIIIIIIIIIIIIIIIIIIIIIIIIIAI11IIIIIAIIIIIIIIIIIIIIAII
IIIIIIIIIIIIIIIIIIIIIIAI1IIIIIIIIIIIIAI11IIIIIAIIIIIIIIIIIIIIAII
IIIIIIIIIIIIIIIIIIIIIIAI1IIIIIIIIIIIIAI11IIIIIAIIIIIIIIIIIAIIAII
IIIIIIIIIIIIIIIIIIIIIIAI1IIIIIIIIIIIIAI11IIIIIAIIIIIIIIIIIAAIAII
IA1IIIIIIIIIIIIIIIIIIIAI1IIIIIIIIIIIIAI11IIIIIAIIIIIIIIIIIAAIAII
IA1IIIIIIIIIIIIIIIIIIIAI1AI1111IIIIIIAI11IIIIIAIIIIIIIIIIIAAIAII
IIIIIIIIIIIIIIIIIIIIIIAI1IIIIIIIIIIIIIIIIIIIIIIIIIIIIIIIIIIIIIII
IIIIIIIIIAIIIIIIIIIIIIIIIIIIIIIIIIIIIIIIIIIIIIIIIIIIIIIIIIIIIIII
IIIIIIIIIAIIIIIIIIIIIIIIIIIIIIIIIIIIIIIIIIIIIIIIIIAIIIIIIIIIIIII
IIIIIIIIIIIIIIIIIIIIIIIIIIIIIIIIIIIIIIIIIIIIIIIIIIIIIIIIIIIIIAII
IIIIIIIIIIIIIIIIIIIIIIIIIIIIIIIIIIIIIIIIIIIIIIAIIIIIIIIIIIIIIAII
IIIIIIIIIIIIIIIIIIIIIIIIIIIIIIIIIIIIIAIIIIIIIIAIIIIIIIIIIIIIIAII
IIIIIIIIIIIIIIIIIIIIIIAIIIIIIIIIIIIIIAIIIIIIIIAIIIIIIIIIIIIIIAII
IIIA1I2IIIIIIIIIIIIIIIIIIIIIIIIIIIIIIIIIIIIIIIIIIIIIIIIIIIIIIIII
IIIA1I2IIIIIIIIIIIIIIIIIIIIIIIIIIIIIIIIIIIIIIIIIIIIIIIIIIIA1IIII
IIIIIIIIIIIIIIIIIIIIIIIIIIIIIIIIIAIIIIIIIIIIIIIIIIIIIIIIIIIIIIII
IIIIIIIIIIIIIIIIIIIIIIAIIIIIIIIIIIIIIIIIIIIIIIIIIIIIIIIIIIIIIIII
IIIIIIIIIAIIIIIIIIIIIIIIIIIIIIIIIIIIIIIIIIIIIIIIIIIIIIIIIIIIIIII
IIIIIIIIIAIIIIIIIIIIIIIIIIIIIIIIIIIIIIIIIIIIIIIIIIAIIIIIIIIIIIII
IIIIIIIIIIIIIIIIIIIIIIIIIIIIIIIIIIIIIIIIIIIIIIIIIIIIIIIIIIIIIAII
IIIIIIIIIIIIIIIIIIIIIIIIIIIIIIIIIIIIIIIIIIIIIIAIIIIIIIIIIIIIIAII
IIIIIIIIIIIIIIIIIIIIIIIIIIIIIIIIIIIIIAIIIIIIIIAIIIIIIIIIIIIIIAII
IIIIIIIIIIIIIIIIIIIIIIAI1IIIIIIIIIIIIAIIIIIIIIAIIIIIIIIIIIIIIAII
IIIIIIIIIIIIIIIIIIIIIIAI1IIIIIIIIIIIIAIIIIIIIIAIAIIIIIIIIIIIIAII
IIIIIIIIIIIIIIIIIIIIIIAI1IIIIIIIIIIIIAIIIIIIIIAAAIIIIIIIIIIIIAII
IIIIIIIIIIIIIIIIIIIIIIAI1IIIIIIIIIIIIAIIIIIIIIAAA1IIIIIIIIIIIAII
IIIIIIIIIIIIIIIIIIIIIIAI1IIIIIIIIIIIIAIIIIIIIIAAA11111IIIIIIIAII
IIIIIIIIIIIIIIIIIIIIIIAI1IIIIIIIIIIIIAIIIIIIIIAAA1111111IIIIIAII
IIIIIIIIIAIIIIIIIIIIIIAI1IIIIIIIIIIIIAIIIIIIIIAAA1111111IIIIIAII
IIIIIIIIIAIIIIIIIIIIIIAI1IIIIIIIIIIIIAIIIIIIIIAAA1111111IIIIIAIA
IIIIIIIIIIIIIIIIIIIIIIAIIIIIIIIIIIIIIIIIIIIIIIIIIIIIIIIIIIIIIIII
IIIIIIIIIAIIIIIIIIIIIIIIIIIIIIIIIIIIIIIIIIIIIIIIIIIIIIIIIIIIIIII
IIIIIIIIIAIIIIIIIIIIIIIIIIIIIIIIIIIIIIIIIIIIIIIIIIAIIIIIIIIIIIII
IIIIIIIIIIIIIIIIIIIIIIIIIIIIIIIIIIIIIIIIIIIIIIIIIIIIIIIIIIIIIAI1
IIIIIIIIIIIIIIIIIIIIIIIIIIIIIIIIIIIIIIIIIIIIIIAIIIIIIIIIIIIIIAI1
IIIIIIIIIIIIIIIIIIIIIIIIIIIIIIIIIIIIIAIIIIIIIIAIIIIIIIIIIIIIIAI1
IIIIIIIIIIIIIIIIIIIIIIAI1IIIIIIIIIIIIAIIIIIIIIAIIIIIIIIIIIIIIAI1
IIIIIIIIIIIA1IIIIIIIIIIIIIIIIIIIIIIIIIIIIIIIIIIIIIIIIIIIIIIIIIII
IIIIIIIIIIIA1IIIIIIIIIIIIIIIIIIIIIIIIIIIIIIAI1IIIIIIIIIIIIIIIIII
IIIIIIIIIIIIIIIIIIIIIIAIIIIIIIIIIIIIIIIIIIIIIIIIIIIIIIIIIIIIIIII
IIIIIIIIIAIIIIIIIIIIIIIIIIIIIIIIIIIIIIIIIIIIIIIIIIIIIIIIIIIIIIII
IIIIIIIIIAIIIIIIIIIIIIIIIIIIIIIIIIIIIIIIIIIIIIIIIIAIIIIIIIIIIIII
IIIIIIIIIIIIIIIIIIIIIIIIIIIIIIIIIIIIIIIIIIIIIIIIIIIIIIIIIIIIIAII
IIIIIIIIIIIIIIIIIIIIIIIIIIIIIIIIIIIIIIIIIIIIIIAIIIIIIIIIIIIIIAII
IIIIIIIIIIIIIIIIIIIIIIIIIIIIIIIIIIIIIAIIIIIIIIAIIIIIIIIIIIIIIAII
IIIIIIIIIIIIIIIIIIIIIIAIIIIIIIIIIIIIIAIIIIIIIIAIIIIIIIIIIIIIIAII
IIIIIIIIIAIIIIIIIIIIIIAIIIIIIIIIIIIIIAIIIIIIIIAIIIIIIIIIIIIIIAII
IIIIIIIIIAAIIIIIIIIIIIAIIIIIIIIIIIIIIAIIIIIIIIAIIIIIIIIIIIIIIAII
IIIIIAIIIAAIIIIIIIIIIIAIIIIIIIIIIIIIIAIIIIIIIIAIIIIIIIIIIIIIIAII
IIIIAAIIIAAIIIIIIIIIIIAIIIIIIIIIIIIIIAIIIIIIIIAIIIIIIIIIIIIIIAII
IIIIAAAIIAAIIIIIIIIIIIAIIIIIIIIIIIIIIAIIIIIIIIAIIIIIIIIIIIIIIAII
IIIIAAAIIAAIIIIIAIIIIIAIIIIIIIIIIIIIIAIIIIIIIIAIIIIIIIIIIIIIIAII
IIIIIIIIIIIIIIIIIIIIIIIIIIIIIIIIIIIIIIIIIIIIIA1I1IIIIIIIIIIIIIII
IIIIIIIIIIIIIIIIIIIIIIAIIIIIIIIIIIIIIIIIIIIIIIIIIIIIIIIIIIIIIIII
IIIIIIIIIAIIIIIIIIIIIIIIIIIIIIIIIIIIIIIIIIIIIIIIIIIIIIIIIIIIIIII
IIIIIIIIIAIIIIIIIIIIIIIIIIIIIIIIIIIIIIIIIIIIIIIIIIAI1IIIIIIIIIII
IIIIIIIIIIIIIIIIIIIIIIIIIIIIIIIIIIIIIIIIIIIIIIIIIIIIIIIIIIIIIAI1
IIIIIIIIIIIIIIIIIIIIIIIIIIIIIIIIIIIIIIIIIIIIIIAIIIIIIIIIIIIIIAI1
IIIIIIIIIIIIIIIIIIIIIIIIIIIIIIIIIIIIIAI11IIIIIAIIIIIIIIIIIIIIAI1
IIIIIIIIIIIIIIIIIIIIIIAIIIIIIIIIIIIIIAI11IIIIIAIIIIIIIIIIIIIIAI1
IIIIIIIIIIIIIIIIIAIIIIIIIIIIIIIIIIIIIIIIIIIIIIIIIIIIIIIIIIIIIIII
IIIIIIIIIIIIIIIIIIIIIIIIIIIIIIIIIIIIIIIIIIIIIAIIIIIIIIIIIIIIIIII
IIIIIIIIIIIIIIIIIIIIIIAIIIIIIIIIIIIIIIIIIIIIIIIIIIIIIIIIIIIIIIII
IIIIIIIIIAIIIIIIIIIIIIAIIIIIIIIIIIIIIIIIIIIIIIIIIIIIIIIIIIIIIIII
IIIIIIIIIAIIIIIIIIIIIIAIIIIIIIIIIIIIIIIIIIIIIIIIIIAIIIIIIIIIIIII
IIIIIIIIIIIIIIIIIIIIIIIIIIIIIIIIIIIIIIIIIIIIIIIIIIIIIIIIIIIIIAII
IIIIIIIIIIIIIIIIIIIIIIIIIIIIIIIIIIIIIIIIIIIIIIAIIIIIIIIIIIIIIAII
IIIIIIIIIIIIIIIIIIIIIIIIIIIIIIIIIIIIIAIIIIIIIIAIIIIIIIIIIIIIIAII
IIIIIIIIIIIIIIIIIIIIIIAIIIIIIIIIIIIIIAIIIIIIIIAIIIIIIIIIIIIIIAII
IIIIIIIIIIIIIIIIIIIIAIIIIIIIIIIIIIIIIIIIIIIIIIIIIIIIIIIIIIIIIIII
IIIIIIIIIIIIIIIIIIIIIIIIIIIIIIIIIIIIIIIIIIIIIAIIIIIIIIIIIIIIIIII
IIIIIIIIIIIIIIIIIIIIIIAIIIIIIIIIIIIIIIIIIIIIIIIIIIIIIIIIIIIIIIII
IIIIIIIIIAIIIIIIIIIIIIAIIIIIIIIIIIIIIIIIIIIIIIIIIIIIIIIIIIIIIIII
IIIIIIIIIAIIIIIIIIIIIIAIIIIIIIIIIIIIIIIIIIIIIIIIIIAIIIIIIIIIIIII
IIIIIIIIIIIIIIIIIIIIIIIIIIIIIIIIIIIIIIIIIIIIIIIIIIIIIIIIIIIIIAII
IIIIIIIIIIIIIIIIIIIIIIIIIIIIIIIIIIIIIIIIIIIIIIAIIIIIIIIIIIIIIAII
IIIIIIIIIIIIIIIIIIIIIIIIIIIIIIIIIIIIIAIIIIIIIIAIIIIIIIIIIIIIIAII
IIIIIIIIIIIIIIIIIIIIIIAIIIIIIIIIIIIIIAIIIIIIIIAIIIIIIIIIIIIIIAII
IIIIIIIIIA2IIIIIIIIIIIIIIIIIIIIIIIIIIIIIIIIIIIIIIIIIIIIIIIIIIIII
IIIIIIIIIAA2IIIIIIIIIIIIIIIIIIIIIIIIIIIIIIIIIIIIIIIIIIIIIIIIIIII
IIIIIA2IIAA2IIIIIIIIIIIIIIIIIIIIIIIIIIIIIIIIIIIIIIIIIIIIIIIIIIII
IIIIIAA2IAA2IIIIIIIIIIIIIIIIIIIIIIIIIIIIIIIIIIIIIIIIIIIIIIIIIIII
IIIIAAA2IAA2IIIIIIIIIIIIIIIIIIIIIIIIIIIIIIIIIIIIIIIIIIIIIIIIIIII
IIIIAAA2IAA2IIIIIIIIIIA1IIIIIIIIIIIIIIIIIIIIIIIIIIIIIIIIIIIIIIII
IIIIAAA2IAA2IIIIIIIIIIA1IIIIIIIIIIIIIIIIIIIIIAI1IIIIIIIIIIIIIIII
IIIIIIIIIIIIIIIIIIIIIIAIIIIIIIIIIIIIIIIIIIIIIIIIIIIIIIIIIIIIIIII
IIIIIIIIIAI11IIIIIIIIIIIIIIIIIIIIIIIIIIIIIIIIIIIIIIIIIIIIIIIIIII
IIIIIIIIIAI11IIIIIIIIIIIIIIIIIIIIIIIIIIIIIIIIIIIIIAIIIIIIIIIIIII
IIIIIIIIIIIIIIIIIIIIIIIIIIIIIIIIIIIIIIIIIIIIIIIIIIIIIIIIIIIIIAII
IIIIIIIIIIIIIIIIIIIIIIIIIIIIIIIIIIIIIIIIIIIIIIAIIIIIIIIIIIIIIAII
IIIIIIIIIIIIIIIIIIIIIIIIIIIIIIIIIIIIIAI11IIIIIAIIIIIIIIIIIIIIAII
IIIIIIIIIIIIIIIIIIIIIIAIIIIIIIIIIIIIIAI11IIIIIAIIIIIIIIIIIIIIAII
IIIIIIIIIAIIIIIIIIIIIIAIIIIIIIIIIIIIIAI11IIIIIAIIIIIIIIIIIIIIAII
IIIIIIIIIAAIIIIIIIIIIIAIIIIIIIIIIIIIIAI11IIIIIAIIIIIIIIIIIIIIAII
IIIIIAIIIAAIIIIIIIIIIIAIIIIIIIIIIIIIIAI11IIIIIAIIIIIIIIIIIIIIAII
IIIIIAAIIAAIIIIIIIIIIIAIIIIIIIIIIIIIIAI11IIIIIAIIIIIIIIIIIIIIAII
IIIIAAAIIAAIIIIIIIIIIIAIIIIIIIIIIIIIIAI11IIIIIAIIIIIIIIIIIIIIAII
IIIIIIIIIIIIIIIIIIIIIIIIIIIIIIIIIIIIIIIIIIIIIAIIIIIIIIIIIIIIIIII
IIIIIIIIIIIIIIIIIIIIIIAI1IIIIIIIIIIIIIIIIIIIIIIIIIIIIIIIIIIIIIII
IIIIIIIIIAIIIIIIIIIIIIIIIIIIIIIIIIIIIIIIIIIIIIIIIIIIIIIIIIIIIIII
IIIIIIIIIAIIIIIIIIIIIIIIIIIIIIIIIIIIIIIIIIIIIIIIIIAIIIIIIIIIIIII
IIIIIIIIIIIIIIIIIIIIIIIIIIIIIIIIIIIIIIIIIIIIIIIIIIIIIIIIIIIIIAII
IIIIIIIIIIIIIIIIIIIIIIIIIIIIIIIIIIIIIIIIIIIIIIAIIIIIIIIIIIIIIAII
IIIIIIIIIIIIIIIIIIIIIIIIIIIIIIIIIIIIIAIIIIIIIIAIIIIIIIIIIIIIIAII
IIIIIIIIIIIIIIIIIIIIIIAIIIIIIIIIIIIIIAIIIIIIIIAIIIIIIIIIIIIIIAII
IIIIIIIIIIIIIIIIIIIIIIIIIIIIIIIIIIIIIA2IIIIIIIIIIIIIIIIIIIIIIIII
IIIIA2IIIIIIIIIIIIIIIIIIIIIIIIIIIIIIIA2IIIIIIIIIIIIIIIIIIIIIIIII
IIIIIIIIIIIIIIIIIIIIIIIIIIIIIIIIIIIIIIIIIIIIIAIIIIIIIIIIIIIIIIII
IIIIIIIIIIIIIIIIIIIIIIAI11IIIIIIIIIIIIIIIIIIIIIIIIIIIIIIIIIIIIII
IIIIIIIIIAIIIIIIIIIIIIIIIIIIIIIIIIIIIIIIIIIIIIIIIIIIIIIIIIIIIIII
IIIIIIIIIAIIIIIIIIIIIIIIIIIIIIIIIIIIIIIIIIIIIIIIIIAIIIIIIIIIIIII
IIIIIIIIIIIIIIIIIIIIIIIIIIIIIIIIIIIIIIIIIIIIIIIIIIIIIIIIIIIIIAII
IIIIIIIIIIIIIIIIIIIIIIIIIIIIIIIIIIIIIIIIIIIIIIAIIIIIIIIIIIIIIAII
IIIIIIIIIIIIIIIIIIIIIIIIIIIIIIIIIIIIIAI1IIIIIIAIIIIIIIIIIIIIIAII
IIIIIIIIIIIIIIIIIIIIIIAIIIIIIIIIIIIIIAI1IIIIIIAIIIIIIIIIIIIIIAII
IIIIIIIIIAIIIIIIIIIIIIAIIIIIIIIIIIIIIAI1IIIIIIAIIIIIIIIIIIIIIAII
IIIIIIIIIAAIIIIIIIIIIIAIIIIIIIIIIIIIIAI1IIIIIIAIIIIIIIIIIIIIIAII
IIIIIAIIIAAIIIIIIIIIIIAIIIIIIIIIIIIIIAI1IIIIIIAIIIIIIIIIIIIIIAII
IIIIIAAIIAAIIIIIIIIIIIAIIIIIIIIIIIIIIAI1IIIIIIAIIIIIIIIIIIIIIAII
IIIIAAAIIAAIIIIIIIIIIIAIIIIIIIIIIIIIIAI1IIIIIIAIIIIIIIIIIIIIIAII
IIIIAAAIIAAIIIIIIIIIIIAIIIIIIIIIIIIIIAA1I2IIIIAIIIIIIIIIIIIIIAII
IIIIAAAIIAAIIIIIIIIIIIAIIIIIIIIIIIIIIAA1I2IIIAAIIIIIIIIIIIIIIAII
IIIIIIIIIIIIIIIIIIIIIIAIIIIIIIIIIIIIIIIIIIIIIIIIIIIIIIIIIIIIIIII
IIIIIIIIIAI1IIIIIIIIIIIIIIIIIIIIIIIIIIIIIIIIIIIIIIIIIIIIIIIIIIII
IIIIIIIIIAI1IIIIIIIIIIIIIIIIIIIIIIIIIIIIIIIIIIIIIIAIIIIIIIIIIIII
IIIIIIIIIIIIIIIIIIIIIIIIIIIIIIIIIIIIIIIIIIIIIIIIIIIIIIIIIIIIIAII
IIIIIIIIIIIIIIIIIIIIIIIIIIIIIIIIIIIIIIIIIIIIIIAI1IIIIIIIIIIIIAII
IIIIIIIIIIIIIIIIIIIIIIIIIIIIIIIIIIIIIAI1IIIIIIAI1IIIIIIIIIIIIAII
IIIIIIIIIIIIIIIIIIIIIIAIIIIIIIIIIIIIIAI1IIIIIIAI1IIIIIIIIIIIIAII
IIIIIIIIIIIIIIIIIIIIIIIIIIIIIIIIIIIIIIIIAIIIIIIIIIIIIIIIIIIIIIII
IIIIIIIIIIIIIIIIIIIIIIIIIIIIIIIIIIIIIIIIAIIIIIIIIIIIIIIIIIIAIIII
IIIIIIIIIIIIIIIIIIIIIIIIIIIIIIIIIIIIIIIIAIIIIAIIIIIIIIIIIIIAIIII
IIIIIIIIIIIIIIIIIIIIIIAI1111IIIIIIIIIIIIIIIIIIIIIIIIIIIIIIIIIIII
IIIIIIIIIAIIIIIIIIIIIIIIIIIIIIIIIIIIIIIIIIIIIIIIIIIIIIIIIIIIIIII
IIIIIIIIIAIIIIIIIIIIIIIIIIIIIIIIIIIIIIIIIIIIIIIIIIAIIIIIIIIIIIII
IIIIIIIIIIIIIIIIIIIIIIIIIIIIIIIIIIIIIIIIIIIIIIIIIIIIIIIIIIIIIAII
IIIIIIIIIIIIIIIIIIIIIIIIIIIIIIIIIIIIIIIIIIIIIIAIIIIIIIIIIIIIIAII
IIIIIIIIIIIIIIIIIIIIIIIIIIIIIIIIIIIIIAIIIIIIIIAIIIIIIIIIIIIIIAII
IIIIIIIIIIIIIIIIIIIIIIAII111IIIIIIIIIAIIIIIIIIAIIIIIIIIIIIIIIAII
IIIIIIIIIIIIIIIIIIIIIIIIIIIIIIIIIIIIIIIIIIA1I1IIIIIIIIIIIIIIIIII
IIIIIIIIIIIIIIIIIIIIIIIIIIIIIIIIIIIIIIIIIIA1I1IIIIIIIIIIIIAI1III
IIIIIIIIIIIIIIIIIIIIIIAIIIIIIIIIIIIIIIIIIIIIIIIIIIIIIIIIIIIIIIII
IIIIIIIIIAI1IIIIIIIIIIIIIIIIIIIIIIIIIIIIIIIIIIIIIIIIIIIIIIIIIIII
IIIIIIIIIAI1IIIIIIIIIIIIIIIIIIIIIIIIIIIIIIIIIIIIIIAIIIIIIIIIIIII
IIIIIIIIIIIIIIIIIIIIIIIIIIIIIIIIIIIIIIIIIIIIIIIIIIIIIIIIIIIIIAII
IIIIIIIIIIIIIIIIIIIIIIIIIIIIIIIIIIIIIIIIIIIIIIAI1IIIIIIIIIIIIAII
IIIIIIIIIIIIIIIIIIIIIIIIIIIIIIIIIIIIIAI1IIIIIIAI1IIIIIIIIIIIIAII
IIIIIIIIIIIIIIIIIIIIIIAIIIIIIIIIIIIIIAI1IIIIIIAI1IIIIIIIIIIIIAII
IIIIIIIIIAIIIIIIIIIIIIAIIIIIIIIIIIIIIAI1IIIIIIAI1IIIIIIIIIIIIAII
IIIIIIIIIAAIIIIIIIIIIIAIIIIIIIIIIIIIIAI1IIIIIIAI1IIIIIIIIIIIIAII
IIIIIAIIIAAIIIIIIIIIIIAIIIIIIIIIIIIIIAI1IIIIIIAI1IIIIIIIIIIIIAII
IIIIIAAIIAAIIIIIIIIIIIAIIIIIIIIIIIIIIAI1IIIIIIAI1IIIIIIIIIIIIAII
IIIIAAAIIAAIIIIIIIIIIIAIIIIIIIIIIIIIIAI1IIIIIIAI1IIIIIIIIIIIIAII
IIIIAAAIIAAIIIIIIIIIIIAIIIIIIIIIIIIIIAI1IIIIIIAI1IAIIIIIIIIIIAII
IIIIAAAIIAAIIIIIIIIIIIAIIIIIIIIIIIIIIAI1IIIIIIAI1IAIIIIIIIIAIA11
IIIIIIIIIIIIIIIIIIIIIIAIIIIIIIIIIIIIIIIIIIIIIIIIIIIIIIIIIIIIIIII
IIIIIIIIIAIIIIIIIIIIIIIIIIIIIIIIIIIIIIIIIIIIIIIIIIIIIIIIIIIIIIII
IIIIIIIIIAIIIIIIIIIIIIIIIIIIIIIIIIIIIIIIIIIIIIIIIIAIIIIIIIIIIIII
IIIIIIIIIIIIIIIIIIIIIIIIIIIIIIIIIIIIIIIIIIIIIIIIIIIIIIIIIIIIIAII
IIIIIIIIIIIIIIIIIIIIIIIIIIIIIIIIIIIIIIIIIIIIIIAI11IIIIIIIIIIIAII
IIIIIIIIIIIIIIIIIIIIIIIIIIIIIIIIIIIIIAI1IIIIIIAI11IIIIIIIIIIIAII
IIIIIIIIIIIIIIIIIIIIIIAIIIIIIIIIIIIIIAI1IIIIIIAI11IIIIIIIIIIIAII
IIIIIIIIIIIIIIIIIIIIIIIIIIIIIIIIIIIIIIIIIIIIIIIIIIIIIIIIIIIAIIII
IIIIIIIIIIIIIIIIIIIIIIAIIIIIIIIIIIIIIIIIIIIIIIIIIIIIIIIIIIIIIIII
IIIIIIIIIAIIIIIIIIIIIIIIIIIIIIIIIIIIIIIIIIIIIIIIIIIIIIIIIIIIIIII
IIIIIIIIIAIIIIIIIIIIIIIIIIIIIIIIIIIIIIIIIIIIIIIIIIAIIIIIIIIIIIII
IIIIIIIIIIIIIIIIIIIIIIIIIIIIIIIIIIIIIIIIIIIIIIIIIIIIIIIIIIIIIAII
IIIIIIIIIIIIIIIIIIIIIIIIIIIIIIIIIIIIIIIIIIIIIIAIIIIIIIIIIIIIIAII
IIIIIIIIIIIIIIIIIIIIIIIIIIIIIIIIIIIIIAIIIIIIIIAIIIIIIIIIIIIIIAII
IIIIIIIIIIIIIIIIIIIIIIAIIIIIIIIIIIIIIAIIIIIIIIAIIIIIIIIIIIIIIAII
IIIIIIIIIIIIIIIIIIIIIIIIIIIIIIIIIIIIIIIIIIIIIIIIIIIIIIIIIIIA1III
IIIIIIIIIIIIIIIIIIIIIIAIIIIIIIIIIIIIIIIIIIIIIIIIIIIIIIIIIIIIIIII
IIIIIIIIIAIIIIIIIIIIIIIIIIIIIIIIIIIIIIIIIIIIIIIIIIIIIIIIIIIIIIII
IIIIIIIIIAIIIIIIIIIIIIIIIIIIIIIIIIIIIIIIIIIIIIIIIIAIIIIIIIIIIIII
IIIIIIIIIIIIIIIIIIIIIIIIIIIIIIIIIIIIIIIIIIIIIIIIIIIIIIIIIIIIIAI1
IIIIIIIIIIIIIIIIIIIIIIIIIIIIIIIIIIIIIIIIIIIIIIAI11IIIIIIIIIIIAI1
IIIIIIIIIIIIIIIIIIIIIIIIIIIIIIIIIIIIIAIIIIIIIIAI11IIIIIIIIIIIAI1
IIIIIIIIIIIIIIIIIIIIIIAIIIIIIIIIIIIIIAIIIIIIIIAI11IIIIIIIIIIIAI1
IIIIIIIIIIIIIIIIIIIIIIAIIIIIIIIIIIIIIIIIIIIIIIIIIIIIIIIIIIIIIIII
IIIIIIIIIAIIIIIIIIIIIIIIIIIIIIIIIIIIIIIIIIIIIIIIIIIIIIIIIIIIIIII
IIIIIIIIIAIIIIIIIIIIIIIIIIIIIIIIIIIIIIIIIIIIIIIIIIAI1IIIIIIIIIII
IIIIIIIIIIIIIIIIIIIIIIIIIIIIIIIIIIIIIIIIIIIIIIIIIIIIIIIIIIIIIAII
IIIIIIIIIIIIIIIIIIIIIIIIIIIIIIIIIIIIIIIIIIIIIIAIIIIIIIIIIIIIIAII
IIIIIIIIIIIIIIIIIIIIIIIIIIIIIIIIIIIIIAI11IIIIIAIIIIIIIIIIIIIIAII
IIIIIIIIIIIIIIIIIIIIIIAIIIIIIIIIIIIIIAI11IIIIIAIIIIIIIIIIIIIIAII
IIIIIIIIIIIIIIIIIIIIIIAI1IIIIIIIIIIIIIIIIIIIIIIIIIIIIIIIIIIIIIII
IIIIIIIIIAIIIIIIIIIIIIIIIIIIIIIIIIIIIIIIIIIIIIIIIIIIIIIIIIIIIIII
IIIIIIIIIAIIIIIIIIIIIIIIIIIIIIIIIIIIIIIIIIIIIIIIIIAIIIIIIIIIIIII
IIIIIIIIIIIIIIIIIIIIIIIIIIIIIIIIIIIIIIIIIIIIIIIIIIIIIIIIIIIIIAII
IIIIIIIIIIIIIIIIIIIIIIIIIIIIIIIIIIIIIIIIIIIIIIAI11IIIIIIIIIIIAII
IIIIIIIIIIIIIIIIIIIIIIIIIIIIIIIIIIIIIAIIIIIIIIAI11IIIIIIIIIIIAII
IIIIIIIIIIIIIIIIIIIIIIAIIIIIIIIIIIIIIAIIIIIIIIAI11IIIIIIIIIIIAII
IIIIIIIIIIIIIIIIIIIIIIAIIIIIIIIIIIIIIIIIIIIIIIIIIIIIIIIIIIIIIIII
IIIIIIIIIAIIIIIIIIIIIIIIIIIIIIIIIIIIIIIIIIIIIIIIIIIIIIIIIIIIIIII
IIIIIIIIIAIIIIIIIIIIIIIIIIIIIIIIIIIIIIIIIIIIIIIIIIAIIIIIIIIIIIII
IIIIIIIIIIIIIIIIIIIIIIIIIIIIIIIIIIIIIIIIIIIIIIIIIIIIIIIIIIIIIAII
IIIIIIIIIIIIIIIIIIIIIIIIIIIIIIIIIIIIIIIIIIIIIIAIIIIIIIIIIIIIIAII
IIIIIIIIIIIIIIIIIIIIIIIIIIIIIIIIIIIIIAIIIIIIIIAIIIIIIIIIIIIIIAII
IIIIIIIIIIIIIIIIIIIIIIAIIIIIIIIIIIIIIAIIIIIIIIAIIIIIIIIIIIIIIAII
IIIIIIIIIIIIIIIIIIIIIIIIIIIIIIIIIIIIIIIIIIIIIIIIIIIIIIIIIIA2IIII
IIIIIIIIIIIIIIIIIIIIIIIIIIIIIIIIIIIIIIIIIIIIIIIIIIIIIIIIIIAA2III
IIIIIIIIIIIIIIIIIIIIIIAIIIIIIIIIIIIIIIIIIIIIIIIIIIIIIIIIIIIIIIII
IIIIIIIIIAI1111IIIIIIIIIIIIIIIIIIIIIIIIIIIIIIIIIIIIIIIIIIIIIIIII
IIIIIIIIIAI1111IIIIIIIIIIIIIIIIIIIIIIIIIIIIIIIIIIIAIIIIIIIIIIIII
IIIIIIIIIIIIIIIIIIIIIIIIIIIIIIIIIIIIIIIIIIIIIIIIIIIIIIIIIIIIIAII
IIIIIIIIIIIIIIIIIIIIIIIIIIIIIIIIIIIIIIIIIIIIIIAIIIIIIIIIIIIIIAII
IIIIIIIIIIIIIIIIIIIIIIIIIIIIIIIIIIIIIAI11IIIIIAIIIIIIIIIIIIIIAII
IIIIIIIIIIIIIIIIIIIIIIAIIIIIIIIIIIIIIAI11IIIIIAIIIIIIIIIIIIIIAII
IIIIIIIIIA2IIIIIIIIIIIAIIIIIIIIIIIIIIAI11IIIIIAIIIIIIIIIIIIIIAII
IIIIIIIIIAA2IIIIIIIIIIAIIIIIIIIIIIIIIAI11IIIIIAIIIIIIIIIIIIIIAII
IIIIIA2IIAA2IIIIIIIIIIAIIIIIIIIIIIIIIAI11IIIIIAIIIIIIIIIIIIIIAII
IIIIIAA2IAA2IIIIIIIIIIAIIIIIIIIIIIIIIAI11IIIIIAIIIIIIIIIIIIIIAII
IIIIAAA2IAA2IIIIIIIIIIAIIIIIIIIIIIIIIAI11IIIIIAIIIIIIIIIIIIIIAII
IIIIIIIIIIIIIIIIIIIIIIAI1IIIIIIIIIIIIIIIIIIIIIIIIIIIIIIIIIIIIIII
IIIIIIIIIAI1IIIIIIIIIIIIIIIIIIIIIIIIIIIIIIIIIIIIIIIIIIIIIIIIIIII
IIIIIIIIIAI1IIIIIIIIIIIIIIIIIIIIIIIIIIIIIIIIIIIIIIAIIIIIIIIIIIII
IIIIIIIIIIIIIIIIIIIIIIIIIIIIIIIIIIIIIIIIIIIIIIIIIIIIIIIIIIIIIAII
IIIIIIIIIIIIIIIIIIIIIIIIIIIIIIIIIIIIIIIIIIIIIIAIIIIIIIIIIIIIIAII
IIIIIIIIIIIIIIIIIIIIIIIIIIIIIIIIIIIIIAIIIIIIIIAIIIIIIIIIIIIIIAII
IIIIIIIIIIIIIIIIIIIIIIAI1IIIIIIIIIIIIAIIIIIIIIAIIIIIIIIIIIIIIAII
IIIIIIIIIA2IIIIIIIIIIIIIIIIIIIIIIIIIIIIIIIIIIIIIIIIIIIIIIIIIIIII
IIIIIIIIIAA2IIIIIIIIIIIIIIIIIIIIIIIIIIIIIIIIIIIIIIIIIIIIIIIIIIII
IIIIIA2IIAA2IIIIIIIIIIIIIIIIIIIIIIIIIIIIIIIIIIIIIIIIIIIIIIIIIIII
IIIIIAA2IAA2IIIIIIIIIIIIIIIIIIIIIIIIIIIIIIIIIIIIIIIIIIIIIIIIIIII
IIIIAAA2IAA2IIIIIIIIIIIIIIIIIIIIIIIIIIIIIIIIIIIIIIIIIIIIIIIIIIII
IIIIIIIIIIIIIIIIIIIIIIAI1IIIIIIIIIIIIIIIIIIIIIIIIIIIIIIIIIIIIIII
IIIIIIIIIAIIIIIIIIIIIIIIIIIIIIIIIIIIIIIIIIIIIIIIIIIIIIIIIIIIIIII
IIIIIIIIIAIIIIIIIIIIIIIIIIIIIIIIIIIIIIIIIIIIIIIIIIAIIIIIIIIIIIII
IIIIIIIIIIIIIIIIIIIIIIIIIIIIIIIIIIIIIIIIIIIIIIIIIIIIIIIIIIIIIAI1
IIIIIIIIIIIIIIIIIIIIIIIIIIIIIIIIIIIIIIIIIIIIIIAI1IIIIIIIIIIIIAI1
IIIIIIIIIIIIIIIIIIIIIIIIIIIIIIIIIIIIIAIIIIIIIIAI1IIIIIIIIIIIIAI1
IIIIIIIIIIIIIIIIIIIIIIAI1111IIIIIIIIIAIIIIIIIIAI1IIIIIIIIIIIIAI1
IIIIIIIIIIIIIIIIIIIIIIAIIIIIIIIIIIIIIIIIIIIIIIIIIIIIIIIIIIIIIIII
IIIIIIIIIAIIIIIIIIIIIIIIIIIIIIIIIIIIIIIIIIIIIIIIIIIIIIIIIIIIIIII
IIIIIIIIIAIIIIIIIIIIIIIIIIIIIIIIIIIIIIIIIIIIIIIIIIAIIIIIIIIIIIII
IIIIIIIIIIIIIIIIIIIIIIIIIIIIIIIIIIIIIIIIIIIIIIIIIIIIIIIIIIIIIAII
IIIIIIIIIIIIIIIIIIIIIIIIIIIIIIIIIIIIIIIIIIIIIIAI1IIIIIIIIIIIIAII
IIIIIIIIIIIIIIIIIIIIIIIIIIIIIIIIIIIIIAI11IIIIIAI1IIIIIIIIIIIIAII
IIIIIIIIIIIIIIIIIIIIIIAIIIIIIIIIIIIIIAI11IIIIIAI1IIIIIIIIIIIIAII
IIIIIIIIIIIIIIIIIIIIIIAIIIIIIIIIIIIIIIIIIIIIIIIIIIIIIIIIIIIIIIII
IIIIIIIIIAIIIIIIIIIIIIIIIIIIIIIIIIIIIIIIIIIIIIIIIIIIIIIIIIIIIIII
IIIIIIIIIAIIIIIIIIIIIIIIIIIIIIIIIIIIIIIIIIIIIIIIIIAI11IIIIIIIIII
IIIIIIIIIIIIIIIIIIIIIIIIIIIIIIIIIIIIIIIIIIIIIIIIIIIIIIIIIIIIIAII
IIIIIIIIIIIIIIIIIIIIIIIIIIIIIIIIIIIIIIIIIIIIIIAIIIIIIIIIIIIIIAII
IIIIIIIIIIIIIIIIIIIIIIIIIIIIIIIIIIIIIAIIIIIIIIAIIIIIIIIIIIIIIAII
IIIIIIIIIIIIIIIIIIIIIIAI1111111IIIIIIAIIIIIIIIAIIIIIIIIIIIIIIAII
IIIIIIIIIA2IIIIIIIIIIIIIIIIIIIIIIIIIIIIIIIIIIIIIIIIIIIIIIIIIIIII
IIIIIIIIIIIIIIIIIIIIIIAI11IIIIIIIIIIIIIIIIIIIIIIIIIIIIIIIIIIIIII
IIIIIIIIIAIIIIIIIIIIIIIIIIIIIIIIIIIIIIIIIIIIIIIIIIIIIIIIIIIIIIII
IIIIIIIIIAIIIIIIIIIIIIIIIIIIIIIIIIIIIIIIIIIIIIIIIIAIIIIIIIIIIIII
IIIIIIIIIIIIIIIIIIIIIIIIIIIIIIIIIIIIIIIIIIIIIIIIIIIIIIIIIIIIIAII
IIIIIIIIIIIIIIIIIIIIIIIIIIIIIIIIIIIIIIIIIIIIIIAI1IIIIIIIIIIIIAII
IIIIIIIIIIIIIIIIIIIIIIIIIIIIIIIIIIIIIAI111IIIIAI1IIIIIIIIIIIIAII
IIIIIIIIIIIIIIIIIIIIIIAI1111IIIIIIIIIAI111IIIIAI1IIIIIIIIIIIIAII
IIIIIIIIIIIIIIIIIIIIIIIIIIIIIIIIIAIIIIIIIIIIIIIIIIIIIIIIIIIIIIII
IIIIIIIIIAIIIIIIIIIIIIIIIIIIIIIIIAIIIIIIIIIIIIIIIIIIIIIIIIIIIIII
IIIIIIIIIIIIIIIIIIIIIIAI1IIIIIIIIIIIIIIIIIIIIIIIIIIIIIIIIIIIIIII
IIIIIIIIIAIIIIIIIIIIIIIIIIIIIIIIIIIIIIIIIIIIIIIIIIIIIIIIIIIIIIII
IIIIIIIIIAIIIIIIIIIIIIIIIIIIIIIIIIIIIIIIIIIIIIIIIIAIIIIIIIIIIIII
IIIIIIIIIIIIIIIIIIIIIIIIIIIIIIIIIIIIIIIIIIIIIIIIIIIIIIIIIIIIIAII
IIIIIIIIIIIIIIIIIIIIIIIIIIIIIIIIIIIIIIIIIIIIIIAI1I11IIIIIIIIIAII
IIIIIIIIIIIIIIIIIIIIIIIIIIIIIIIIIIIIIAIIIIIIIIAI1I11IIIIIIIIIAII
IIIIIIIIIIIIIIIIIIIIIIAIIIIIIIIIIIIIIAIIIIIIIIAI1I11IIIIIIIIIAII
IIIIIIIIIIIIIIIIIIIIIIIIIIIIIIIIIA1IIIIIIIIIIIIIIIIIIIIIIIIIIIII
IIIIIIIIIIIA1IIIIIIIIIIIIIIIIIIIIA1IIIIIIIIIIIIIIIIIIIIIIIIIIIII
IIIIIIIIIIIIIIIIIIIIIIAIIIIIIIIIIIIIIIIIIIIIIIIIIIIIIIIIIIIIIIII
IIIIIIIIIAI11IIIIIIIIIIIIIIIIIIIIIIIIIIIIIIIIIIIIIIIIIIIIIIIIIII
IIIIIIIIIAI11IIIIIIIIIIIIIIIIIIIIIIIIIIIIIIIIIIIIIAIIIIIIIIIIIII
IIIIIIIIIIIIIIIIIIIIIIIIIIIIIIIIIIIIIIIIIIIIIIIIIIIIIIIIIIIIIAII
IIIIIIIIIIIIIIIIIIIIIIIIIIIIIIIIIIIIIIIIIIIIIIAI1IIIIIIIIIIIIAII
IIIIIIIIIIIIIIIIIIIIIIIIIIIIIIIIIIIIIAI11IIIIIAI1IIIIIIIIIIIIAII
IIIIIIIIIIIIIIIIIIIIIIAIIIIIIIIIIIIIIAI11IIIIIAI1IIIIIIIIIIIIAII
IIIIIIIIIAIIIIIIIIIIIIIIIIIIIIIIIIIIIIIIIIIIIIIIIIIIIIIIIIIIIIII
IIIIIIIIIAAIIIIIIIIIIIIIIIIIIIIIIIIIIIIIIIIIIIIIIIIIIIIIIIIIIIII
IIIIIAIIIAAIIIIIIIIIIIIIIIIIIIIIIIIIIIIIIIIIIIIIIIIIIIIIIIIIIIII
IIIIIAAIIAAIIIIIIIIIIIIIIIIIIIIIIIIIIIIIIIIIIIIIIIIIIIIIIIIIIIII
IIIIAAAIIAAIIIIIIIIIIIIIIIIIIIIIIIIIIIIIIIIIIIIIIIIIIIIIIIIIIIII
IIIIAAAIIAAIIIIIIIIIIIIIIIIIIIIIIIIIIIIIIIIA1IIIIIIIIIIIIIIIIIII
IIIIAAAIIAAAIIIIIIIIIIIIIIIIIIIIIIIIIIIIIIIA1IIIIIIIIIIIIIIIIIII
IIIIIIIIIIIIIIIIIIIIIIAIIIIIIIIIIIIIIIIIIIIIIIIIIIIIIIIIIIIIIIII
IIIIIIIIIAI1IIIIIIIIIIIIIIIIIIIIIIIIIIIIIIIIIIIIIIIIIIIIIIIIIIII
IIIIIIIIIAI1IIIIIIIIIIIIIIIIIIIIIIIIIIIIIIIIIIIIIIAIIIIIIIIIIIII
IIIIIIIIIIIIIIIIIIIIIIIIIIIIIIIIIIIIIIIIIIIIIIIIIIIIIIIIIIIIIAII
IIIIIIIIIIIIIIIIIIIIIIIIIIIIIIIIIIIIIIIIIIIIIIAI111IIIIIIIIIIAII
IIIIIIIIIIIIIIIIIIIIIIIIIIIIIIIIIIIIIAI1IIIIIIAI111IIIIIIIIIIAII
IIIIIIIIIIIIIIIIIIIIIIAIIIIIIIIIIIIIIAI1IIIIIIAI111IIIIIIIIIIAII
IIIIIIIIIIIIIIIIIIIIIIIIIIIIIIIIIIIIIIIIIIIIIIIIIIIIIIIIIIIAIIII
IIIIIIIIIIIIIIIIIIIIIIIIIIIIIIIIIAIIIIIIIIIIIIIIIIIIIIIIIIIAIIII
IIIIIIIIIIIIIIIIIIIIIIAI1IIIIIIIIIIIIIIIIIIIIIIIIIIIIIIIIIIIIIII
IIIIIIIIIAIIIIIIIIIIIIIIIIIIIIIIIIIIIIIIIIIIIIIIIIIIIIIIIIIIIIII
IIIIIIIIIAIIIIIIIIIIIIIIIIIIIIIIIIIIIIIIIIIIIIIIIIAIIIIIIIIIIIII
IIIIIIIIIIIIIIIIIIIIIIIIIIIIIIIIIIIIIIIIIIIIIIIIIIIIIIIIIIIIIAII
IIIIIIIIIIIIIIIIIIIIIIIIIIIIIIIIIIIIIIIIIIIIIIAIIIIIIIIIIIIIIAII
IIIIIIIIIIIIIIIIIIIIIIIIIIIIIIIIIIIIIAI1IIIIIIAIIIIIIIIIIIIIIAII
IIIIIIIIIIIIIIIIIIIIIIAI111IIIIIIIIIIAI1IIIIIIAIIIIIIIIIIIIIIAII
IIIIIIIIIIIIIIIIIIIIIIIIIIIIIIIIIIIIIIIIIIIIIIIIIIIIIIIIIIIIIA2I
IIIIIIIIIIIIIIIIIIIIIIIIIIIIIIIIIIIIIIIIA2IIIIIIIIIIIIIIIIIIIA2I
IIIIIIIIIIIIIIIIIIIIIIAIIIIIIIIIIIIIIIIIIIIIIIIIIIIIIIIIIIIIIIII
IIIIIIIIIAIIIIIIIIIIIIIIIIIIIIIIIIIIIIIIIIIIIIIIIIIIIIIIIIIIIIII
IIIIIIIIIAIIIIIIIIIIIIIIIIIIIIIIIIIIIIIIIIIIIIIIIIAIIIIIIIIIIIII
IIIIIIIIIIIIIIIIIIIIIIIIIIIIIIIIIIIIIIIIIIIIIIIIIIIIIIIIIIIIIAI1
IIIIIIIIIIIIIIIIIIIIIIIIIIIIIIIIIIIIIIIIIIIIIIAIIIIIIIIIIIIIIAI1
IIIIIIIIIIIIIIIIIIIIIIIIIIIIIIIIIIIIIAIIIIIIIIAIIIIIIIIIIIIIIAI1
IIIIIIIIIIIIIIIIIIIIIIAIIIIIIIIIIIIIIAIIIIIIIIAIIIIIIIIIIIIIIAI1
IIIIIIIIIIIIIIIIIIIIIIIIIIIIIIIIIIIIIIIIIIIIIIIIIIIIIIIIIIIIIAII
IIIIIIIIIIIIIIIIIIIIIIIIIIIIIIIIIIIIIIIIAIIIIIIIIIIIIIIIIIIIIAII
IIIIIIIIIIIIIIIIIIIIIIAIIIIIIIIIIIIIIIIIIIIIIIIIIIIIIIIIIIIIIIII
IIIIIIIIIAIIIIIIIIIIIIIIIIIIIIIIIIIIIIIIIIIIIIIIIIIIIIIIIIIIIIII
IIIIIIIIIAIIIIIIIIIIIIIIIIIIIIIIIIIIIIIIIIIIIIIIIIAIIIIIIIIIIIII
IIIIIIIIIIIIIIIIIIIIIIIIIIIIIIIIIIIIIIIIIIIIIIIIIIIIIIIIIIIIIAII
IIIIIIIIIIIIIIIIIIIIIIIIIIIIIIIIIIIIIIIIIIIIIIAIIIIIIIIIIIIIIAII
IIIIIIIIIIIIIIIIIIIIIIIIIIIIIIIIIIIIIAIIIIIIIIAIIIIIIIIIIIIIIAII
IIIIIIIIIIIIIIIIIIIIIIAIIIIIIIIIIIIIIAIIIIIIIIAIIIIIIIIIIIIIIAII
IIIIIIIIIIIIIIIIIIIIIIIIIIIIIIIIIIIIIIIIIIAIIIIIIIIIIIIIIIIIIIII
IAI1IIIIIIIIIIIIIIIIIIIIIIIIIIIIIIIIIIIIIIAIIIIIIIIIIIIIIIIIIIII
IIIIIIIIIIIIIIIIIIIIIIAI1IIIIIIIIIIIIIIIIIIIIIIIIIIIIIIIIIIIIIII
IIIIIIIIIAIIIIIIIIIIIIIIIIIIIIIIIIIIIIIIIIIIIIIIIIIIIIIIIIIIIIII
IIIIIIIIIAIIIIIIIIIIIIIIIIIIIIIIIIIIIIIIIIIIIIIIIIAIIIIIIIIIIIII
IIIIIIIIIIIIIIIIIIIIIIIIIIIIIIIIIIIIIIIIIIIIIIIIIIIIIIIIIIIIIAII
IIIIIIIIIIIIIIIIIIIIIIIIIIIIIIIIIIIIIIIIIIIIIIAIIIIIIIIIIIIIIAII
IIIIIIIIIIIIIIIIIIIIIIIIIIIIIIIIIIIIIAI1IIIIIIAIIIIIIIIIIIIIIAII
IIIIIIIIIIIIIIIIIIIIIIAI111IIIIIIIIIIAI1IIIIIIAIIIIIIIIIIIIIIAII
IIIIIIIIIIIIIIIIIIIIIIIIIIIIIIIIIIIIIIIIIIIIIA2IIIIIIIIIIIIIIIII
IAI1IIIIIIIIIIIIIIIIIIIIIIIIIIIIIIIIIIIIIIIIIA2IIIIIIIIIIIIIIIII
IIIIIIIIIIIIIIIIIIIIIIAIIIIIIIIIIIIIIIIIIIIIIIIIIIIIIIIIIIIIIIII
IIIIIIIIIAIIIIIIIIIIIIIIIIIIIIIIIIIIIIIIIIIIIIIIIIIIIIIIIIIIIIII
IIIIIIIIIAIIIIIIIIIIIIIIIIIIIIIIIIIIIIIIIIIIIIIIIIAII1IIIIIIIIII
IIIIIIIIIIIIIIIIIIIIIIIIIIIIIIIIIIIIIIIIIIIIIIIIIIIIIIIIIIIIIAII
IIIIIIIIIIIIIIIIIIIIIIIIIIIIIIIIIIIIIIIIIIIIIIAIIIIIIIIIIIIIIAII
IIIIIIIIIIIIIIIIIIIIIIIIIIIIIIIIIIIIIAIIIIIIIIAIIIIIIIIIIIIIIAII
[...]
IIIIIIIIIIIAIIIIIIIIIIIIIIIIIIIIIIIIIIIIIIIIIIIIIIIIIIIIIIIIIIII
IIIIIIIIIIIAIIIIIIIIIIIIIIIIIIIIIIIIIIIIIIIIIIIIIIAIIIIIIIIIIIII
IIIIIIIIIIIIIIIIIIIIIIIIIIIIIIIIIIIIIIIIIIAIIIIIIIIIIIIIIIIIIIII
IIIIIIIIIIIIIIIIIIIIIIIIIIIIIIIIIIIIIIIIAIIIIIIIIIIIIIIIIIIIIIII
IIIIIIIIIIIIIIIIIIIIIIIIIIIIIIIIIIIIIIIIIIIIIIIIIIIAI111111IIIII
IIIIIIIIIIIIIIIIIIIIIIAI11IIIIIIIIIIIIIIIIIIIIIIIIIIIIIIIIIIIIII
IIIIIIIIIIIIIIIIIIIIIIIIIIIIIIIIIIIIIIIIIIIIIIAIIIIIIIIIIIIIIIII
IIIIIIIIIIIIIIIIIIIIIIIIIIIIIIIIIIIIIIIIIIIIIAAIIIIIIIIIIIIIIIII
IIIIIIIIIIIAIIIIIIIIIIIIIIIIIIIIIIIIIIIIIIIIIIIIIIIIIIIIIIIIIIII
IIIIIIIIIIIAIIIIIIIIIIIIIIIIIIIIIIIIIIIIIIIIIIIIIIAIIIIIIIIIIIII
IIIIIIIIIIIIIIIIIIIIIIIIIIIIIIIIIIIIIIIIIIAIIIIIIIIIIIIIIIIIIIII
IIIIIIIIIIIIIIIIIIIIIIIIIIIIIIIIIIIIIIIIAII1I11IIIIIIIIIIIIIIIII
IIIIIIIIIIIIIIIIIIIIIIIIIIIIIIIIIIIIIIIIIIIIIIIIIIIAI11111IIIIII
IIIIIIIIIIIIIIIIIIIIIIAI111111111111IIIIIIIIIIIIIIIIIIIIIIIIIIII
IIIIIIIIIIIIIIIIIIIIIIIIIIIIIIIIIIIIIIIIIIIIIIAIIIIIIIIIIIIIIIII
IIIIIIIIIIIIIIIIIIIIIIIIIIIIIIIIIIIIIIIIIIIIIAAI111IIIIIIIIIIIII
IIIIIIIIIIIAIIIIIIIIIIIIIIIIIIIIIIIIIIIIIIIIIIIIIIIIIIIIIIIIIIII
IIIIIIIIIIIAIIIIIIIIIIIIIIIIIIIIIIIIIIIIIIIIIIIIIIAIIIIIIIIIIIII
IIIIIIIIIIIIIIIIIIIIIIIIIIIIIIIIIIIIIIIIIIAIIII12I2I222IIIIIIIII
IIIIIIIIIIIIIIIIIIIIIIIIIIIIIIIIIIIIIIIIAI22IIIIIIIIIIIIIIIIIIII
IIIIIIIIIIIIIIIIIIIIIIIIIIIIIIIIIIIIIIIIIIIIIIIIIIIAI111111111I1
IIIIIIIIIIIIIIIIIIIIIIAIIIIIIIIIIIIIIIIIIIIIIIIIIIIIIIIIIIIIIIII
IIIIIIIIIIIIIIIIIIIIIIIIIIIIIIIIIIIIIIIIIIIIIIAIIIIIIIIIIIIIIIII
IIIIIIIIIIIIIIIIIIIIIIIIIIIIIIIIIIIIIIIIIIIIIIAIIIAIIIIIIIIIIIII
IIIIIIIIIIIAI1IIIIIIIIIIIIIIIIIIIIIIIIIIIIIIIIIIIIIIIIIIIIIIIIII
IIIIIIIIIIIAI1IIIIIIIIIIIIIIIIIIIIIIIIIIIIIIIIIIIIAIIIIIIIIIIIII
IIIIIIIIIIIIIIIIIIIIIIIIIIIIIIIIIIIIIIIIIIAI11IIIIIIIIIIIIIIIIII
IIIIIIIIIIIIIIIIIIIIIIIIIIIIIIIIIIIIIIIIAIIIIIIIIIIIIIIIIIIIIIII
IIIIIIIIIIIIIIIIIIIIIIIIIIIIIIIIIIIIIIIIIIIIIIIIIIIAIIIIIIIIIIII
IIIIIIIIIIIIIIIIIIIIIIAIIIIIIIIIIIIIIIIIIIIIIIIIIIIIIIIIIIIIIIII
IIIIIIIIIIIIIIIIIIIIIIIIIIIIIIIIIIIIIIIIIIIIIIAI1111IIIIIIIIIIII
IIIIIIIIIIIIIIIIIIIIIIIIIIIIIIIIIIIIIIIIIIIIIIAI11A1IIIIIIIIIIII
IIIIIIIIIIIAIIIIIIIIIIIIIIIIIIIIIIIIIIIIIIIIIIIIIIIIIIIIIIIIIIII
IIIIIIIIIIIAIIIIIIIIIIIIIIIIIIIIIIIIIIIIIIIIIIIIIIAIIIIIIIIIIIII
IIIIIIIIIIIIIIIIIIIIIIIIIIIIIIIIIIIIIIIIIIAIIIIIIIIIIIIIIIIIIIII
IIIIIIIIIIIIIIIIIIIIIIIIIIIIIIIIIIIIIIIIAI1IIIIIIIIIIIIIIIIIIIII
IIIIIIIIIIIIIIIIIIIIIIIIIIIIIIIIIIIIIIIIIIIIIIIIIIIAIIIIIIIIIIII
IIIIIIIIIIIIIIIIIIIIIIAI111111I111111IIIIIIIIIIIIIIIIIIIIIIIIIII
IIIIIIIIIIIIIIIIIIIIIIIIIIIIIIIIIIIIIIIIIIIIIIAIIIIIIIIIIIIIIIII
IIIIIIIIIIIIIIIIIIIIIIIIIIIIIIIIIIIIIIIIIIIIIIAIIIIIIIIIAIIIIIII
IIIIIIIIIIIAIIIIIIIIIIIIIIIIIIIIIIIIIIIIIIIIIIIIIIIIIIIIIIIIIIII
IIIIIIIIIIIAIIIIIIIIIIIIIIIIIIIIIIIIIIIIIIIIIIIIIIAIIIIIIIIIIIII
IIIIIIIIIIIIIIIIIIIIIIIIIIIIIIIIIIIIIIIIIIAIIIIIIIIIIIIIIIIIIIII
IIIIIIIIIIIIIIIIIIIIIIIIIIIIIIIIIIIIIIIIAII1I1IIIIIIIIIIIIIIIIII
IIIIIIIIIIIIIIIIIIIIIIIIIIIIIIIIIIIIIIIIIIIIIIIIIIIAIIIIIIIIIIII
IIIIIIIIIIIIIIIIIIIIIIAI111111I11111IIIIIIIIIIIIIIIIIIIIIIIIIIII
IIIIIIIIIIIIIIIIIIIIIIIIIIIIIIIIIIIIIIIIIIIIIIAIIIIIIIIIIIIIIIII
IIIIIIIIIIIIIIIIIIIIIIIIIIIIIIIIIIIIIIIIIIIIIIAIIIIIIIIIIIIIIIIA
IIIIIIIIIIIAIIIIIIIIIIIIIIIIIIIIIIIIIIIIIIIIIIIIIIIIIIIIIIIIIIII
IIIIIIIIIIIAIIIIIIIIIIIIIIIIIIIIIIIIIIIIIIIIIIIIIIAIIIIIIIIIIIII
IIIIIIIIIIIIIIIIIIIIIIIIIIIIIIIIIIIIIIIIIIAIIIIIIIIIIIIIIIIIIIII
IIIIIIIIIIIIIIIIIIIIIIIIIIIIIIIIIIIIIIIIAIIIIIIIIIIIIIIIIIIIIIII
IIIIIIIIIIIIIIIIIIIIIIIIIIIIIIIIIIIIIIIIIIIIIIIIIIIAIIIIIIIIIIII
IIIIIIIIIIIIIIIIIIIIIIAI11111111111IIIIIIIIIIIIIIIIIIIIIIIIIIIII
IIIIIIIIIIIIIIIIIIIIIIIIIIIIIIIIIIIIIIIIIIIIIIA2IIIIIIIIIIIIIIII
IIIIIIIIIIIAIIIIIIIIIIIIIIIIIIIIIIIIIIIIIIIIIIIIIIIIIIIIIIIIIIII
IIIIIIIIIIIAIIIIIIIIIIIIIIIIIIIIIIIIIIIIIIIIIIIIIIAIIIIIIIIIIIII
IIIIIIIIIIIIIIIIIIIIIIIIIIIIIIIIIIIIIIIIIIAIIII2II2IIIIIIIIIIIII
IIIIIIIIIIIIIIIIIIIIIIIIIIIIIIIIIIIIIIIIAII1I11I11IIIIIIIIIIIIII
IIIIIIIIIIIIIIIIIIIIIIIIIIIIIIIIIIIIIIIIIIIIIIIIIIIAI111111I1111
IIIIIIIIIIIIIIIIIIIIIIAI111111I11111IIIIIIIIIIIIIIIIIIIIIIIIIIII
IIIIIIIIIIIIIIIIIIIIIIIIIIIIIIIIIIIIIIIIIIIIIIAIIIIIIIIIIIIIIIII
IIIIIIIIIIIAIIIIIIIIIIIIIIIIIIIIIIIIIIIIIIIIIIIIIIIIIIIIIIIIIIII
IIIIIIIIIIIAIIIIIIIIIIIIIIIIIIIIIIIIIIIIIIIIIIIIIIAIIIIIIIIIIIII
IIIIIIIIIIIIIIIIIIIIIIIIIIIIIIIIIIIIIIIIIIAII1I1II222IIIIIIIIIII
IIIIIIIIIIIIIIIIIIIIIIIIIIIIIIIIIIIIIIIIAIIIIIIIIIIIIIIIIIIIIIII
IIIIIIIIIIIIIIIIIIIIIIIIIIIIIIIIIIIIIIIIIIIIIIIIIIIAI11111IIIIII
IIIIIIIIIIIIIIIIIIIIIIAIIIIIIIIIIIIIIIIIIIIIIIIIIIIIIIIIIIIIIIII
IIIIIIIIIIIIIIIIIIIIIIIIIIIIIIIIIIIIIIIIIIIIIIAIIIIIIIIIIIIIIIII
IIIIIIIIIIIAIIIIIIIIIIIIIIIIIIIIIIIIIIIIIIIIIIIIIIIIIIIIIIIIIIII
IIIIIIIIIIIAIIIIIIIIIIIIIIIIIIIIIIIIIIIIIIIIIIIIIIAIIIIIIIIIIIII
IIIIIIIIIIIIIIIIIIIIIIIIIIIIIIIIIIIIIIIIIIAIIIIIIIIIIIIIIIIIIIII
IIIIIIIIIIIIIIIIIIIIIIIIIIIIIIIIIIIIIIIIAIIII11I11122222IIIIIIII
IIIIIIIIIIIIIIIIIIIIIIIIIIIIIIIIIIIIIIIIIIIIIIIIIIIAI111111I1III
IIIIIIIIIIIIIIIIIIIIIIAI111111I11111IIIIIIIIIIIIIIIAI111111I1III
IIIIIIIIIIIIIIIIIIIIIIIIIIIIIIIIIIIIIIIIIIIIIIAIIIIIIIIIIIIIIIII
IIIIIIIIIIIAIIIIIIIIIIIIIIIIIIIIIIIIIIIIIIIIIIIIIIIIIIIIIIIIIIII
IIIIIIIIIIIAIIIIIIIIIIIIIIIIIIIIIIIIIIIIIIIIIIIIIIAIIIIIIIIIIIII
IIIIIIIIIIIIIIIIIIIIIIIIIIIIIIIIIIIIIIIIIIAIIIIIIIIIIIIIIIIIIIII
IIIIIIIIIIIIIIIIIIIIIIIIIIIIIIIIIIIIIIIIAI1111IIIIIIIIIIIIIIIIII
IIIIIIIIIIIIIIIIIIIIIIIIIIIIIIIIIIIIIIIIIIIIIIIIIIIAI111IIIIIIII
IIIIIIIIIIIIIIIIIIIIIIAIIIIIIIIIIIIIIIIIIIIIIIIIIIIIIIIIIIIIIIII
IIIIIIIIIIIIIIIIIIIIIIIIIIIIIIIIIIIIIIIIIIIIIIAIIIIIIIIIIIIIIIII
IIIIIIIIIIIAIIIIIIIIIIIIIIIIIIIIIIIIIIIIIIIIIIIIIIIIIIIIIIIIIIII
IIIIIIIIIIIAIIIIIIIIIIIIIIIIIIIIIIIIIIIIIIIIIIIIIIAIIIIIIIIIIIII
IIIIIIIIIIIIIIIIIIIIIIIIIIIIIIIIIIIIIIIIIIAIIIIIIIIIIIIIIIIIIIII
IIIIIIIIIIIIIIIIIIIIIIIIIIIIIIIIIIIIIIIIAI1IIIIIIIIIIIIIIIIIIIII
IIIIIIIIIIIIIIIIIIIIIIIIIIIIIIIIIIIIIIIIIIIIIIIIIIIAIIIIIIIIIIII
IIIIIIIIIIIIIIIIIIIIIIAIIIIIIIIIIIIIIIIIIIIIIIIIIIIIIIIIIIIIIIII
IIIIIIIIIIIIIIIIIIIIIIIIIIIIIIIIIIIIIIIIIIIIIIAIIIIIIIIIIIIIIIII
IIIIIIIIIIIAIIIIIIIIIIIIIIIIIIIIIIIIIIIIIIIIIIIIIIIIIIIIIIIIIIII
IIIIIIIIIIIAIIIIIIIIIIIIIIIIIIIIIIIIIIIIIIIIIIIIIIAIIIIIIIIIIIII
IIIIIIIIIIIIIIIIIIIIIIIIIIIIIIIIIIIIIIIIIIAIIII1IIIIIIIIIIIIIIII
IIIIIIIIIIIIIIIIIIIIIIIIIIIIIIIIIIIIIIIIAIIIIIIIIIIIIIIIIIIIIIII
IIIIIIIIIIIIIIIIIIIIIIIIIIIIIIIIIIIIIIIIIIIIIIIIIIIAIIIIIIIIIIII
IIIIIIIIIIIIIIIIIIIIIIAIIIIIIIIIIIIIIIIIIIIIIIIIIIIIIIIIIIIIIIII
IIIIIIIIIIIIIIIIIIIIIIIIIIIIIIIIIIIIIIIIIIIIIIAIIIIIIIIIIIIIIIII
IIIIIIAIIIIIIIIIIIIIIIIIIIIIIIIIIIIIIIIIIIIIIIAIIIIIIIIIIIIIIIII
IIIIIIIIIIIAII11111111111IIIIIIIIIIIIIIIIIIIIIIIIIIIIIIIIIIIIIII
IIIIIIIIIIIAII11111111111IIIIIIIIIIIIIIIIIIIIIIIIIAIIIIIIIIIIIII
IIIIIIIIIIIIIIIIIIIIIIIIIIIIIIIIIIIIIIIIIIAI1111111IIIIIIIIIIIII
IIIIIIIIIIIIIIIIIIIIIIIIIIIIIIIIIIIIIIIIAIIIIIIIIIIIIIIIIIIIIIII
IIIIIIIIIIIIIIIIIIIIIIIIIIIIIIIIIIIIIIIIIIIIIIIIIIIAIIIIIIIIIIII
IIIIIIIIIIIIIIIIIIIIIIAIIIIIIIIIIIIIIIIIIIIIIIIIIIIIIIIIIIIIIIII
IIIIIIIIIIIIIIIIIIIIIIIIIIIIIIIIIIIIIIIIIIIIIIAIIIIIIIIIIIIIIIII
IIIIIIIIIIIIIIA2IIIIIIIIIIIIIIIIIIIIIIIIIIIIIIAIIIIIIIIIIIIIIIII
IIIIIIIIIIIAIIIIIIIIIIIIIIIIIIIIIIIIIIIIIIIIIIIIIIIIIIIIIIIIIIII
IIIIIIIIIIIAIIIIIIIIIIIIIIIIIIIIIIIIIIIIIIIIIIIIIIAIIIIIIIIIIIII
IIIIIIIIIIIIIIIIIIIIIIIIIIIIIIIIIIIIIIIIIIAIIIIIIIIIIIIIIIIIIIII
IIIIIIIIIIIIIIIIIIIIIIIIIIIIIIIIIIIIIIIIAII111111IIIIIIIIIIIIIII
IIIIIIIIIIIIIIIIIIIIIIIIIIIIIIIIIIIIIIIIIIIIIIIIIIIAIIIIIIIIIIII
IIIIIIIIIIIIIIIIIIIIIIAIIIIIIIIIIIIIIIIIIIIIIIIIIIIIIIIIIIIIIIII
IIIIIIIIIIIIIIIIIIIIIIIIIIIIIIIIIIIIIIIIIIIIIIAIIIIIIIIIIIIIIIII
IIIIIIIIIIIIIIIIAIIIIIIIIIIIIIIIIIIIIIIIIIIIIIAIIIIIIIIIIIIIIIII
IIIIIIIIIIIAIIIIIIIIIIIIIIIIIIIIIIIIIIIIIIIIIIIIIIIIIIIIIIIIIIII
IIIIIIIIIIIAIIIIIIIIIIIIIIIIIIIIIIIIIIIIIIIIIIIIIIAIIIIIIIIIIIII
IIIIIIIIIIIIIIIIIIIIIIIIIIIIIIIIIIIIIIIIIIAIIIIIIIIIIIIIIIIIIIII
IIIIIIIIIIIIIIIIIIIIIIIIIIIIIIIIIIIIIIIIAIIIIIIIIIIIIIIIIIIIIIII
IIIIIIIIIIIIIIIIIIIIIIIIIIIIIIIIIIIIIIIIIIIIIIIIIIIAI111111I1111
IIIIIIIIIIIIIIIIIIIIIIAI1IIIIIIIIIIIIIIIIIIIIIIIIIIIIIIIIIIIIIII
IIIIIIIIIIIIIIIIIIIIIIIIIIIIIIIIIIIIIIIIIIIIIIAIIIIIIIIIIIIIIIII
IIIIIIIIIIIIIIIIIIIIIIIIIIIIIIIIIIIIIIIIIIIIIIAIIIIIIIIIIIAIIIII
IIIIIIIIIIIAIIIIIIIIIIIIIIIIIIIIIIIIIIIIIIIIIIIIIIIIIIIIIIIIIIII
IIIIIIIIIIIAIIIIIIIIIIIIIIIIIIIIIIIIIIIIIIIIIIIIIIAIIIIIIIIIIIII
IIIIIIIIIIIIIIIIIIIIIIIIIIIIIIIIIIIIIIIIIIAIIII12I22222222IIIIII
IIIIIIIIIIIIIIIIIIIIIIIIIIIIIIIIIIIIIIIIA2I2IIIIIIIIIIIIIIIIIIII
IIIIIIIIIIIIIIIIIIIIIIIIIIIIIIIIIIIIIIIIIIIIIIIIIIIAII1111IIIIII
IIIIIIIIIIIIIIIIIIIIIIAIIIIIIIIIIIIIIIIIIIIIIIIIIIIIIIIIIIIIIIII
IIIIIIIIIIIIIIIIIIIIIIIIIIIIIIIIIIIIIIIIIIIIIIAIIIIIIIIIIIIIIIII
IIIIIIIIIIIIIIIIIIIIIIIIIIIIIIIIIIIIIIIIIIIIIIAIIIIIIIIIIIAI1III
IIIIIIIIIIIAIIIIIIIIIIIIIIIIIIIIIIIIIIIIIIIIIIIIIIIIIIIIIIIIIIII
IIIIIIIIIIIAIIIIIIIIIIIIIIIIIIIIIIIIIIIIIIIIIIIIIIAIIIIIIIIIIIII
IIIIIIIIIIIIIIIIIIIIIIIIIIIIIIIIIIIIIIIIIIAII1I12I2IIIIIIIIIIIII
IIIIIIIIIIIIIIIIIIIIIIIIIIIIIIIIIIIIIIIIAI1IIIIIIIIIIIIIIIIIIIII
IIIIIIIIIIIIIIIIIIIIIIIIIIIIIIIIIIIIIIIIIIIIIIIIIIIAIIIIIIIIIIII
IIIIIIIIIIIIIIIIIIIIIIAIIIIIIIIIIIIIIIIIIIIIIIIIIIIIIIIIIIIIIIII
IIIIIIIIIIIIIIIIIIIIIIIIIIIIIIIIIIIIIIIIIIIIIIAIIIIIIIIIIIIIIIII
IIIIIIIIIIIIIIIIIIIIIIIIIIIIIIIIIIIIIIIIIIIIIIAIIIIIIIIIIIIA2III
IIIIIIIIIIIAIIIIIIIIIIIIIIIIIIIIIIIIIIIIIIIIIIIIIIIIIIIIIIIIIIII
IIIIIIIIIIIAIIIIIIIIIIIIIIIIIIIIIIIIIIIIIIIIIIIIIIAIIIIIIIIIIIII
IIIIIIIIIIIIIIIIIIIIIIIIIIIIIIIIIIIIIIIIIIIAIIIIIIIIIIIIIIIIIIII
IIIIIIIIIIIIIIIIIIIIIIIIIIIIIIIIIIIIIIIIAI11IIIIIIIIIIIIIIIIIIII
IIIIIIIIIIIIIIIIIIIIIIIIIIIIIIIIIIIIIIIIIIIIIIIIIIIAI11111111111
IIIIIIIIIIIIIIIIIIIIIIAI1IIIIIIIIIIIIIIIIIIIIIIIIIIIIIIIIIIIIIII
IIIIIIIIIIIIIIIIIIIIIIIIIIIIIIIIIIIIIIIIIIIIIIAIIIIIIIIIIIIIIIII
IIIIIIIIIIIIIIIIIIIIIIIIIIIIIIIIIIIIIIIIIIIIIIAIIIIIIIIIIIIAIIII
IIIIIIIIIAIIIIIIIIIIIIIIIIIIIIIIIIIIIIIIIIIIIIIIIIIIIIIIIIIIIIII
IIIIIIIIIIIAIIIIIIIIIIIIIIIIIIIIIIIIIIIIIIIIIIIIIIIIIIIIIIIIIIII
IIIIIIIIIIIAIIIIIIIIIIIIIIIIIIIIIIIIIIIIIIIIIIIIIIAIIIIIIIIIIIII
IIIIIIIIIIIIIIIIIIIIIIIIIIIIIIIIIIIIIIIIIIIIIIAIIIIIIIIIIIIIIIII
IIIIIIIIIIIIIIIIIIIIIIIIIIIIIIIIIIIIIIIIA2IIIIIIIIIIIIIIIIIIIIII
IIIIIIIIIIIIIIIIIIIIIIIIIIIIIIIIIIIIIIIIIIIIIIIIIIIAI111IIIIIIII
IIIIIIIIIIIIIIIIIIIIIIAI11111IIIIIIIIIIIIIIIIIIIIIIIIIIIIIIIIIII
IIIIIIIIIIIIIIIIIIIIIIIIIIIIIIIIIIIIIIIIIIIIIIAIIIIIIIIIIIIIIIII
IIIIIIIIIAIIIIIIIIIIIIIIIIIIIIIIIIIIIIIIIIIIIIIIIIIIIIIIIIIIIIII
IIIIIIIIIIIAIIIIIIIIIIIIIIIIIIIIIIIIIIIIIIIIIIIIIIIIIIIIIIIIIIII
IIIIIIIIIIIAIIIIIIIIIIIIIIIIIIIIIIIIIIIIIIIIIIIIIIAIIIIIIIIIIIII
IIIIIIIIIIIIIIIIIIIIIIIIIIIIIIIIIIIIIIIIIIIIIIAIIII1II2I2IIIIIII
IIIIIIIIIIIIIIIIIIIIIIIIIIIIIIIIIIIIIIIIAIIIIIIIIIIIIIIIIIIIIIII
IIIIIIIIIIIIIIIIIIIIIIIIIIIIIIIIIIIIIIIIIIIIIIIIIIIAI11111111111
IIIIIIIIIIIIIIIIIIIIIIAIIIIIIIIIIIIIIIIIIIIIIIIIIIIIIIIIIIIIIIII
IIIIIIIIIIIIIIIIIIIIIIIIIIIIIIIIIIIIIIIIIIIIIIAIIIIIIIIIIIIIIIII
IIIIIIIIIAIIIIIIIIIIIIIIIIIIIIIIIIIIIIIIIIIIIIIIIIIIIIIIIIIIIIII
IIIIIIIIIIIAI1IIIIIIIIIIIIIIIIIIIIIIIIIIIIIIIIIIIIIIIIIIIIIIIIII
IIIIIIIIIIIAI1IIIIIIIIIIIIIIIIIIIIIIIIIIIIIIIIIIIIAIIIIIIIIIIIII
IIIIIIIIIIIIIIIIIIIIIIIIIIIIIIIIIIIIIIIIIIIIIIIIAIIIIIIIIIIIIIII
IIIIIIIIIIIIIIIIIIIIIIIIIIIIIIIIIIIIIIIIAII111111111IIIIIIIIIIII
IIIIIIIIIIIIIIIIIIIIIIIIIIIIIIIIIIIIIIIIIIIIIIIIIIIAIIIIIIIIIIII
IIIIIIIIIIIIIIIIIIIIIIAI1111IIIIIIIIIIIIIIIIIIIIIIIIIIIIIIIIIIII
IIIIIIIIIIIIIIIIIIIIIIIIIIIIIIIIIIIIIIIIIIIIIIAIIIIIIIIIIIIIIIII
IIIIIIIIIAI1IIIIIIIIIIIIIIIIIIIIIIIIIIIIIIIIIIIIIIIIIIIIIIIIIIII
IIIIIIIIIIIAI111111I1IIIIIIIIIIIIIIIIIIIIIIIIIIIIIIIIIIIIIIIIIII
IIIIIIIIIIIAI111111I1IIIIIIIIIIIIIIIIIIIIIIIIIIIIIAIIIIIIIIIIIII
IIIIIIIIIIIIIIIIIIIIIIIIIIIIIIIIIIIIIIIIIIIIIIIIAIIIIIIIIIIIIIII
IIIIIIIIIIIIIIIIIIIIIIIIIIIIIIIIIIIIIIIIAIIIIIIIIIIIIIIIIIIIIIII
IIIIIIIIIIIIIIIIIIIIIIIIIIIIIIIIIIIIIIIIIIIIIIIIIIIAIIIIIIIIIIII
IIIIIIIIIIIIIIIIIIIIIIAI1111IIIIIIIIIIIIIIIIIIIIIIIIIIIIIIIIIIII
IIIIIIIIIIIIIIIIIIIIIIIIIIIIIIIIIIIIIIIIIIIIIIAIIIIIIIIIIIIIIIII
IIIIIIIIIAIIIIIIIIIIIIIIIIIIIIIIIIIIIIIIIIIIIIIIIIIIIIIIIIIIIIII
IIIIIIIIIIIAIIIIIIIIIIIIIIIIIIIIIIIIIIIIIIIIIIIIIIIIIIIIIIIIIIII
IIIIIIIIIIIAIIIIIIIIIIIIIIIIIIIIIIIIIIIIIIIIIIIIIIAIIIIIIIIIIIII
IIIIIIIIIIIIIIIIIIIIIIIIIIIIIIIIIIIIIIIIIIIIIIIIIIAIIIIIIIIIIIII
IIIIIIIIIIIIIIIIIIIIIIIIIIIIIIIIIIIIIIIIAIIIIIIIIIIIIIIIIIIIIIII
IIIIIIIIIIIIIIIIIIIIIIIIIIIIIIIIIIIIIIIIIIIIIIIIIIIAI111111I1III
IIIIIIIIIIIIIIIIIIIIIIAI111IIIIIIIIIIIIIIIIIIIIIIIIIIIIIIIIIIIII
IIIIIIIIIIIIIIIIIIIIIIIIIIIIIIIIIIIIIIIIIIIIIIAIIIIIIIIIIIIIIIII
IIIIIIIIIAIIIIIIIIIIIIIIIIIIIIIIIIIIIIIIIIIIIIIIIIIIIIIIIIIIIIII
IIIIIIIIIIIAIIIIIIIIIIIIIIIIIIIIIIIIIIIIIIIIIIIIIIIIIIIIIIIIIIII
IIIIIIIIIIIAIIIIIIIIIIIIIIIIIIIIIIIIIIIIIIIIIIIIIIAIIIIIIIIIIIII
IIIIIIIIIIIIIIIIIIIIIIIIIIIIIIIIIIIIIIIIIIIIIIIIIIIAIIIIIIIIIIII
IIIIIIIIIIIIIIIIIIIIIIIIIIIIIIIIIIIIIIIIAI2IIIIIIIIIIIIIIIIIIIII
IIIIIIIIIIIIIIIIIIIIIIIIIIIIIIIIIIIIIIIIIIIIIIIIIIIAI11111111III
IIIIIIIIIIIIIIIIIIIIIIAIIIIIIIIIIIIIIIIIIIIIIIIIIIIIIIIIIIIIIIII
IIIIIIIIIIIIIIIIIIIIIIIIIIIIIIIIIIIIIIIIIIIIIIAIIIIIIIIIIIIIIIII
IIIIIIIIIAI111IIIIIIIIIIIIIIIIIIIIIIIIIIIIIIIIIIIIIIIIIIIIIIIIII
IIIIIIIIIIIAIIIIIIIIIIIIIIIIIIIIIIIIIIIIIIIIIIIIIIIIIIIIIIIIIIII
IIIIIIIIIIIAIIIIIIIIIIIIIIIIIIIIIIIIIIIIIIIIIIIIIIAIIIIIIIIIIIII
IIIIIIIIIIIIIIIIIIIIIIIIIIIIIIIIIIIIIIIIIIIIIIIIIIIAIIIIIIIIIIII
IIIIIIIIIIIIIIIIIIIIIIIIIIIIIIIIIIIIIIIIAII111IIIIIIIIIIIIIIIIII
IIIIIIIIIIIIIIIIIIIIIIIIIIIIIIIIIIIIIIIIIIIIIIIIIIIAIIIIIIIIIIII
IIIIIIIIIIIIIIIIIIIIIIAI11111IIIIIIIIIIIIIIIIIIIIIIIIIIIIIIIIIII
IIIIIIIIIIIIIIIIIIIIIIIIIIIIIIIIIIIIIIIIIIIIIIAIIIIIIIIIIIIIIIII
IIIIIIIIIAI111111I11IIIIIIIIIIIIIIIIIIIIIIIIIIIIIIIIIIIIIIIIIIII
IIIIIIIIIIIAI111111IIIIIIIIIIIIIIIIIIIIIIIIIIIIIIIIIIIIIIIIIIIII
IIIIIIIIIIIAI111111IIIIIIIIIIIIIIIIIIIIIIIIIIIIIIIAIIIIIIIIIIIII
IIIIIIIIIIIIIIIIIIIIIIIIIIIIIIIIIIIIIIIIIIIIIIIIIIIIIIIAIIIIIIII
IIIIIIIIIIIIIIIIIIIIIIIIIIIIIIIIIIIIIIIIAIIIIIIIIIIIIIIIIIIIIIII
IIIIIIIIIIIIIIIIIIIIIIIIIIIIIIIIIIIIIIIIIIIIIIIIIIIAI111111I11I1
IIIIIIIIIIIIIIIIIIIIIIAI1IIIIIIIIIIIIIIIIIIIIIIIIIIIIIIIIIIIIIII
IIIIIIIIIIIIIIIIIIIIIIIIIIIIIIIIIIIIIIIIIIIIIIAIIIIIIIIIIIIIIIII
IIIIIIIIIAIIIIIIIIIIIIIIIIIIIIIIIIIIIIIIIIIIIIIIIIIIIIIIIIIIIIII
IIIIIIIIIIIAIIIIIIIIIIIIIIIIIIIIIIIIIIIIIIIIIIIIIIIIIIIIIIIIIIII
IIIIIIIIIIIAIIIIIIIIIIIIIIIIIIIIIIIIIIIIIIIIIIIIIIAIIIIIIIIIIIII
IIIIIIIIIIIIIIIIIIIIIIIIIIIIIIIIIIIIIIIIIIIIIIIIIIIIIIIAIIII1II2
IIIIIIIIIIIIIIIIIIIIIIIIIIIIIIIIIIIIIIIIAI2IIIIIIIIIIIIIIIIIIIII
IIIIIIIIIIIIIIIIIIIIIIIIIIIIIIIIIIIIIIIIIIIIIIIIIIIAII11IIIIIIII
IIIIIIIIIIIIIIIIIIIIIIAIIIIIIIIIIIIIIIIIIIIIIIIIIIIIIIIIIIIIIIII
IIIIIIIIIIIIIIIIIIIIIIIIIIIIIIIIIIIIIIIIIIIIIIA1I2IIIIIIIIIIIIII
IIIIIIIIIAIIIIIIIIIIIIIIIIIIIIIIIIIIIIIIIIIIIIIIIIIIIIIIIIIIIIII
IIIIIIIIIIIAIIIIIIIIIIIIIIIIIIIIIIIIIIIIIIIIIIIIIIIIIIIIIIIIIIII
IIIIIIIIIIIAIIIIIIIIIIIIIIIIIIIIIIIIIIIIIIIIIIIIIIAIIIIIIIIIIIII
IIIIIIIIIIIIIIIIIIIIIIIIIIIIIIIIIIIIIIIIIIIIIIIIIIIIIIIIIIAIIII1
IIIIIIIIIIIIIIIIIIIIIIIIIIIIIIIIIIIIIIIIAI22IIIIIIIIIIIIIIIIIIII
IIIIIIIIIIIIIIIIIIIIIIIIIIIIIIIIIIIIIIIIIIIIIIIIIIIAI111111I1111
IIIIIIIIIIIIIIIIIIIIIIAIIIIIIIIIIIIIIIIIIIIIIIIIIIIIIIIIIIIIIIII
IIIIIIIIIIIIIIIIIIIIIIIIIIIIIIIIIIIIIIIIIIIIIIA1I222222IIIIIIIII
IIIIIIIIIAIIIIIIIIIIIIIIIIIIIIIIIIIIIIIIIIIIIIIIIIIIIIIIIIIIIIII
IIIIIIIIIIIAIIIIIIIIIIIIIIIIIIIIIIIIIIIIIIIIIIIIIIIIIIIIIIIIIIII
IIIIIIIIIIIAIIIIIIIIIIIIIIIIIIIIIIIIIIIIIIIIIIIIIIAIIIIIIIIIIIII
IIIIIIIIIIIIIIIIIIIIIIIIIIIIIIIIIIIIIIIIIIIIIIIIIIIIIIIIIIAIIIII
IIIIIIIIIIIIIIIIIIIIIIIIIIIIIIIIIIIIIIIIAII1I11I11111222IIIIIIII
IIIIIIIIIIIIIIIIIIIIIIIIIIIIIIIIIIIIIIIIIIIIIIIIIIIAI111111I1111
IIIIIIIIIIIIIIIIIIIIIIAIIIIIIIIIIIIIIIIIIIIIIIIIIIIIIIIIIIIIIIII
IIIIIIIIIIIIIIIIIIIIIIIIIIIIIIIIIIIIIIIIIIIIIIAIIIIIIIIIIIIIIIII
IIIIIIIIIAIIIIIIIIIIIIIIIIIIIIIIIIIIIIIIIIIIIIIIIIIIIIIIIIIIIIII
IIIIIIIIIIIAIIIIIIIIIIIIIIIIIIIIIIIIIIIIIIIIIIIIIIIIIIIIIIIIIIII
IIIIIIIIIIIAIIIIIIIIIIIIIIIIIIIIIIIIIIIIIIIIIIIIIIAIIIIIIIIIIIII
IIIIIIIIIIIIIIIIIIIIIIIIIIIIIIIIIIIIIIIIIIIIIIIIIIIIIIIIIIIAIIII
IIIIIIIIIIIIIIIIIIIIIIIIIIIIIIIIIIIIIIIIAIIIIIIIIIIIIIIIIIIIIIII
IIIIIIIIIIIIIIIIIIIIIIIIIIIIIIIIIIIIIIIIIIIIIIIIIIIAI111111IIIII
IIIIIIIIIIIIIIIIIIIIIIAIIIIIIIIIIIIIIIIIIIIIIIIIIIIIIIIIIIIIIIII
IIIIIIIIIIIIIIIIIIIIIIIIIIIIIIIIIIIIIIIIIIIIIIAI1IIIIIIIIIIIIIII
IIIIIIIIIAIIIIIIIIIIIIIIIIIIIIIIIIIIIIIIIIIIIIIIIIIIIIIIIIIIIIII
IIIIIIIIIIIAI1111111IIIIIIIIIIIIIIIIIIIIIIIIIIIIIIIIIIIIIIIIIIII
IIIIIIIIIIIAI1111111IIIIIIIIIIIIIIIIIIIIIIIIIIIIIIAIIIIIIIIIIIII
IIIIIIIIIIIIIIIIIIIIIIIIIIIIIIIIIIIIIIIIIIIIIIIIIIIIIIIIIIIIIAII
IIIIIIIIIIIIIIIIIIIIIIIIIIIIIIIIIIIIIIIIAII1I11IIIIIIIIIIIIIIIII
IIIIIIIIIIIIIIIIIIIIIIIIIIIIIIIIIIIIIIIIIIIIIIIIIIIAIIIIIIIIIIII
IIIIIIIIIIIIIIIIIIIIIIAI111111111IIIIIIIIIIIIIIIIIIIIIIIIIIIIIII
IIIIIIIIIIIIIIIIIIIIIIIIIIIIIIIIIIIIIIIIIIIIIIAIIIIIIIIIIIIIIIII
IIIIIIIIIAIIIIIIIIIIIIIIIIIIIIIIIIIIIIIIIIIIIIIIIIIIIIIIIIIIIIII
[MLOP] Prefetch Degree Mean: 6.0604
[MLOP] Prefetch Degree SD: 5.77834
[MLOP] Max Score Left Mean (%): 25.8316
[MLOP] Max Score Left SD (%): 18.58
[MLOP] Max Score Right Mean (%): 40.6697
[MLOP] Max Score Right SD (%): 18.2
 All Calls: 27887516
 Critical Calls: 27887516
------------------
Depth Distribution
------------------
depth 0: 0
depth 1: 20972826
depth 2: 11175596
depth 3: 5013997
depth 4: 500330
depth 5: 10336
depth 6: 38
depth 7: 7
depth 8: 0
depth 9: 0
depth 10: 0
depth 11: 0
depth 12: 0
depth 13: 0
depth 14: 0
depth 15: 0
depth 16: 0
depth 17: 0
depth 18: 0
depth 19: 0
depth 20: 0
depth 21: 0
depth 22: 0
depth 23: 0
depth 24: 0
depth 25: 0
depth 26: 0
depth 27: 0
depth 28: 0
depth 29: 0
Total: 37673130
-----------------------------
-----------------------------
	Captured at Filter
-----------------------------
depth 0: 0
depth 1: 127239
depth 2: 38812
depth 3: 17107
depth 4: 1879
depth 5: 39
depth 6: 0
depth 7: 0
depth 8: 0
depth 9: 0
depth 10: 0
depth 11: 0
depth 12: 0
depth 13: 0
depth 14: 0
depth 15: 0
depth 16: 0
depth 17: 0
depth 18: 0
depth 19: 0
depth 20: 0
depth 21: 0
depth 22: 0
depth 23: 0
depth 24: 0
depth 25: 0
depth 26: 0
depth 27: 0
depth 28: 0
depth 29: 0
-----------------------------
-----------------------------
		Lost at Page
-----------------------------
depth 0: 0
depth 1: 477930
depth 2: 440056
depth 3: 278353
depth 4: 39555
depth 5: 1068
depth 6: 6
depth 7: 1
depth 8: 0
depth 9: 0
depth 10: 0
depth 11: 0
depth 12: 0
depth 13: 0
depth 14: 0
depth 15: 0
depth 16: 0
depth 17: 0
depth 18: 0
depth 19: 0
depth 20: 0
depth 21: 0
depth 22: 0
depth 23: 0
depth 24: 0
depth 25: 0
depth 26: 0
depth 27: 0
depth 28: 0
depth 29: 0
-----------------------------
-----------------------------
	Lost due to PQ Size
-----------------------------
4145480
-----------------------------
ST read accesses: 13651683
ST write accesses: 3119869
PT read accesses: 260882967
PT write accesses: 18080994
FILTER read accesses: 63436304
FILTER write accesses: 21305709
GHR read accesses: 29980698
GHR write accesses: 980094
GHR counter read accesses: 224278140
GHR counter write accesses: 22526636
ST tag read accesses: 8045557596
ST tag write accesses: 987634045

DRAM Statistics
 CHANNEL 0
 RQ ROW_BUFFER_HIT:    2270393  ROW_BUFFER_MISS:    9798120
 DBUS_CONGESTED:        450
 WQ ROW_BUFFER_HIT:      14719  ROW_BUFFER_MISS:      51363  FULL:          0

 AVG_CONGESTED_CYCLE: 4
 All warmup complete: 2
Channel 0 Bank busy for read cycles: 0
Channel 0 Bank busy for write cycles: 0
Channel 0
Rank 0
0banks busy for read cycles: 33821698
0banks busy for write cycles: 12502
1banks busy for read cycles: 35111092
1banks busy for write cycles: 3950121
2banks busy for read cycles: 32930382
2banks busy for write cycles: 1927162
3banks busy for read cycles: 29506376
3banks busy for write cycles: 1287538
4banks busy for read cycles: 29105944
4banks busy for write cycles: 932219
5banks busy for read cycles: 31084150
5banks busy for write cycles: 623434
6banks busy for read cycles: 36298113
6banks busy for write cycles: 437509
7banks busy for read cycles: 46832666
7banks busy for write cycles: 402596
8banks busy for read cycles: 72104976
8banks busy for write cycles: 811873

CPU 0 Branch Prediction Accuracy: 96.256% MPKI: 11.3017 Average ROB Occupancy at Mispredict: 45.8157
Branch types
NOT_BRANCH: 34906686 69.8134%
BRANCH_DIRECT_JUMP: 1899352 3.7987%
BRANCH_INDIRECT: 0 0%
BRANCH_CONDITIONAL: 12769936 25.5399%
BRANCH_DIRECT_CALL: 195242 0.390484%
BRANCH_INDIRECT_CALL: 16752 0.033504%
BRANCH_RETURN: 211994 0.423988%
BRANCH_OTHER: 0 0%

DRAM PAGES: 1048576
Allocated PAGES: 86300
