
*** ChampSim Multicore Out-of-Order Simulator ***

Warmup Instructions: 50000000
Simulation Instructions: 50000000
Number of CPUs: 1
LLC sets: 2048
LLC ways: 16
Off-chip DRAM Size: 4096 MB Channels: 1 Width: 64-bit Data Rate: 6400 MT/s
CPU 0 runs ../tracer/traces/621.wrf_s-8065B.champsimtrace.xz
.xz
CPU 0 Bimodal branch predictor
BTB has LRU replacement policy
ITLB has LRU replacement policy
DTLB has LRU replacement policy
STLB has LRU replacement policy
L1I has LRU replacement policy
CPU 0 L1D Berti prefetcher
L1D has LRU replacement policy
L2C has LRU replacement policy
Heartbeat CPU 0 instructions: 10000002 cycles: 3025306 heartbeat IPC: 3.30545 cumulative IPC: 3.30545 (Simulation time: 0 hr 1 min 2 sec) 
Heartbeat CPU 0 instructions: 20000000 cycles: 6035624 heartbeat IPC: 3.32191 cumulative IPC: 3.31366 (Simulation time: 0 hr 1 min 51 sec) 
Heartbeat CPU 0 instructions: 30000000 cycles: 9020358 heartbeat IPC: 3.35038 cumulative IPC: 3.32581 (Simulation time: 0 hr 2 min 45 sec) 
Heartbeat CPU 0 instructions: 40000003 cycles: 12090308 heartbeat IPC: 3.25738 cumulative IPC: 3.30844 (Simulation time: 0 hr 3 min 39 sec) 
Heartbeat CPU 0 instructions: 50000002 cycles: 15092131 heartbeat IPC: 3.33131 cumulative IPC: 3.31298 (Simulation time: 0 hr 4 min 32 sec) 

Warmup complete CPU 0 instructions: 50000002 cycles: 15092131 (Simulation time: 0 hr 4 min 32 sec) 

Heartbeat CPU 0 instructions: 60000003 cycles: 24581237 heartbeat IPC: 1.05384 cumulative IPC: 1.05384 (Simulation time: 0 hr 5 min 43 sec) 
Heartbeat CPU 0 instructions: 70000001 cycles: 35744100 heartbeat IPC: 0.895827 cumulative IPC: 0.968431 (Simulation time: 0 hr 6 min 45 sec) 
Heartbeat CPU 0 instructions: 80000001 cycles: 45537693 heartbeat IPC: 1.02108 cumulative IPC: 0.985365 (Simulation time: 0 hr 7 min 56 sec) 
Heartbeat CPU 0 instructions: 90000000 cycles: 56519830 heartbeat IPC: 0.910569 cumulative IPC: 0.965538 (Simulation time: 0 hr 9 min 0 sec) 
Heartbeat CPU 0 instructions: 100000000 cycles: 66403618 heartbeat IPC: 1.01176 cumulative IPC: 0.974441 (Simulation time: 0 hr 10 min 10 sec) 
Finished CPU 0 instructions: 50000000 cycles: 51311503 cumulative IPC: 0.97444 (Simulation time: 0 hr 10 min 10 sec) 

ChampSim completed all CPUs

Region of Interest Statistics

CPU 0 cumulative IPC: 0.97444 instructions: 50000000 cycles: 51311503
ITLB TOTAL     ACCESS:    6684634  HIT:    6684633  MISS:          1  HIT %:        100  MISS %: 1.49597e-05   MPKI: 2e-05
ITLB LOAD TRANSLATION ACCESS:    6684634  HIT:    6684633  MISS:          1  HIT %:        100  MISS %: 1.49597e-05   MPKI: 2e-05
ITLB PREFETCH  REQUESTED:          0  ISSUED:          0  USEFUL:          0  USELESS:          0
ITLB USEFUL LOAD PREFETCHES:          0 PREFETCH ISSUED TO LOWER LEVEL:          0  ACCURACY: -nan
ITLB TIMELY PREFETCHES:          0 LATE PREFETCHES: 0 DROPPED PREFETCHES: 0
ITLB PREFETCHES SAME FILL-ORIGIN LEVEL: 0 DIFFERENT FILL-ORIGIN LEVEL: 0
ITLB AVERAGE MISS LATENCY: 320 cycles
ITLB RQ	ACCESS:    7942155	FORWARD:          0	MERGED:    1257520	TO_CACHE:    6684635

DTLB TOTAL     ACCESS:   12247688  HIT:   12220783  MISS:      26905  HIT %:    99.7803  MISS %:   0.219674   MPKI: 0.5381
DTLB LOAD TRANSLATION ACCESS:   12247688  HIT:   12220783  MISS:      26905  HIT %:    99.7803  MISS %:   0.219674   MPKI: 0.5381
DTLB PREFETCH  REQUESTED:          0  ISSUED:          0  USEFUL:          0  USELESS:          0
DTLB USEFUL LOAD PREFETCHES:          0 PREFETCH ISSUED TO LOWER LEVEL:          0  ACCURACY: -nan
DTLB TIMELY PREFETCHES:          0 LATE PREFETCHES: 0 DROPPED PREFETCHES: 0
DTLB PREFETCHES SAME FILL-ORIGIN LEVEL: 0 DIFFERENT FILL-ORIGIN LEVEL: 0
DTLB AVERAGE MISS LATENCY: 18.8049 cycles
DTLB RQ	ACCESS:   13713606	FORWARD:          0	MERGED:    1458612	TO_CACHE:   12254994

STLB TOTAL     ACCESS:    7095911  HIT:    7093184  MISS:       2727  HIT %:    99.9616  MISS %:  0.0384306   MPKI: 0.05454
STLB LOAD TRANSLATION ACCESS:      26906  HIT:      25091  MISS:       1815  HIT %:    93.2543  MISS %:    6.74571   MPKI: 0.0363
STLB TRANSLATION FROM L1D PREFETCHER ACCESS:    7069005  HIT:    7068093  MISS:        912  HIT %:    99.9871  MISS %:  0.0129014   MPKI: 0.01824
STLB PREFETCH  REQUESTED:          0  ISSUED:          0  USEFUL:        912  USELESS:          0
STLB USEFUL LOAD PREFETCHES:        912 PREFETCH ISSUED TO LOWER LEVEL:          0  ACCURACY: inf
STLB TIMELY PREFETCHES:        912 LATE PREFETCHES: 68 DROPPED PREFETCHES: 27444
STLB PREFETCHES SAME FILL-ORIGIN LEVEL: 0 DIFFERENT FILL-ORIGIN LEVEL: 0
STLB AVERAGE MISS LATENCY: 13734.7 cycles
STLB RQ	ACCESS:    8408161	FORWARD:          0	MERGED:    1284575	TO_CACHE:    7123586

STLB Hit, L1D data hit: 0
STLB Hit, L2C data hit: 0
STLB Hit, LLC data hit: 0
STLB Hit, LLC data miss: 0
STLB STLB hints to L2: 0
L1D TOTAL     ACCESS:   20930644  HIT:   20153809  MISS:     776835  HIT %:    96.2885  MISS %:    3.71147   MPKI: 15.5367
L1D LOAD      ACCESS:   11485192  HIT:   11409431  MISS:      75761  HIT %:    99.3404  MISS %:   0.659641   MPKI: 1.51522
L1D RFO       ACCESS:    1742502  HIT:    1586355  MISS:     156147  HIT %:    91.0389  MISS %:    8.96108   MPKI: 3.12294
L1D PREFETCH  ACCESS:    7702950  HIT:    7158023  MISS:     544927  HIT %:    92.9257  MISS %:    7.07426   MPKI: 10.8985
AGUS PREFETCH L1 MISS: 0
L1D PREFETCH  REQUESTED:   17399592  ISSUED:   17399592  USEFUL:     517316  USELESS:      27604
L1D USEFUL LOAD PREFETCHES:     517316 PREFETCH ISSUED TO LOWER LEVEL:     558449  ACCURACY: 92.6344
L1D TIMELY PREFETCHES:     517316 LATE PREFETCHES: 13522 DROPPED PREFETCHES: 27806
L1D PREFETCHES SAME FILL-ORIGIN LEVEL: 558449 DIFFERENT FILL-ORIGIN LEVEL: 0
L1D AVERAGE MISS LATENCY: 681129 cycles
L1D RQ	ACCESS:   16587628	FORWARD:          0	MERGED:    5054762	TO_CACHE:   11527128
L1D WQ	ACCESS:    2196131	FORWARD:       5745	MERGED:       9653	TO_CACHE:    2186478
L1D PQ	ACCESS:    9018337	FORWARD:          0	MERGED:     637075	TO_CACHE:    8381255

L1D UNIQUE REGIONS ACCESSED: 0
L1D REGIONS CONFLICTS: 0
L1D Cross Page Prefetch Requests: 0
L1D Same Page Prefetch Requests: 16055824
L1D ROI Sum of L1D PQ occupancy: 114912581
L1D PREFETCHES PUSHED FROM L2C: 0
L1I TOTAL     ACCESS:    7941480  HIT:    7940213  MISS:       1267  HIT %:     99.984  MISS %:  0.0159542   MPKI: 0.02534
L1I LOAD      ACCESS:    7941480  HIT:    7940213  MISS:       1267  HIT %:     99.984  MISS %:  0.0159542   MPKI: 0.02534
L1I PREFETCH  REQUESTED:          0  ISSUED:          0  USEFUL:          0  USELESS:          0
L1I USEFUL LOAD PREFETCHES:          0 PREFETCH ISSUED TO LOWER LEVEL:          0  ACCURACY: -nan
L1I TIMELY PREFETCHES:          0 LATE PREFETCHES: 0 DROPPED PREFETCHES: 0
L1I PREFETCHES SAME FILL-ORIGIN LEVEL: 0 DIFFERENT FILL-ORIGIN LEVEL: 0
L1I AVERAGE MISS LATENCY: 216.605 cycles
L1I RQ	ACCESS:   12283789	FORWARD:          0	MERGED:    4341634	TO_CACHE:    7942155

BTB TOTAL     ACCESS:    1597075  HIT:    1596661  MISS:        414  HIT %:    99.9741  MISS %:  0.0259224   MPKI: 0.00828
BTB BRANCH_DIRECT_JUMP	ACCESS:      17950  HIT:      17907  MISS:         43
BTB BRANCH_INDIRECT	ACCESS:          5  HIT:          3  MISS:          2
BTB BRANCH_CONDITIONAL	ACCESS:    1541595  HIT:    1541413  MISS:        182
BTB BRANCH_DIRECT_CALL	ACCESS:      18763  HIT:      18710  MISS:         53
BTB BRANCH_INDIRECT_CALL	ACCESS:          0  HIT:          0  MISS:          0
BTB BRANCH_RETURN	ACCESS:      18762  HIT:      18628  MISS:        134
BTB BRANCH_OTHER ACCESS:          0  HIT:          0  MISS:          0

L2C TOTAL     ACCESS:    1104281  HIT:     578571  MISS:     525710  HIT %:    52.3935  MISS %:    47.6065   MPKI: 10.5142
L2C LOAD      ACCESS:      63506  HIT:      33006  MISS:      30500  HIT %:     51.973  MISS %:     48.027   MPKI: 0.61
L2C DATA LOAD MPKI: 0.58466
L2C INSTRUCTION LOAD MPKI: 0.02534
L2C RFO       ACCESS:     156147  HIT:      16268  MISS:     139879  HIT %:    10.4184  MISS %:    89.5816   MPKI: 2.79758
L2C PREFETCH  ACCESS:     558442  HIT:     204264  MISS:     354178  HIT %:    36.5775  MISS %:    63.4225   MPKI: 7.08356
AGUS PREFETCH L1 MISS: 0
L2C DATA PREFETCH MPKI: 7.08356
L2C INSTRUCTION PREFETCH MPKI: 0
L2C WRITEBACK ACCESS:     295949  HIT:     295288  MISS:        661  HIT %:    99.7767  MISS %:   0.223349   MPKI: 0.01322
L2C LOAD TRANSLATION ACCESS:       1813  HIT:       1549  MISS:        264  HIT %:    85.4385  MISS %:    14.5615   MPKI: 0.00528
L2C TRANSLATION FROM L1D PREFETCHER ACCESS:      28424  HIT:      28196  MISS:        228  HIT %:    99.1979  MISS %:   0.802139   MPKI: 0.00456
L2C PREFETCH  REQUESTED:          0  ISSUED:          0  USEFUL:       7123  USELESS:     344919
L2C USEFUL LOAD PREFETCHES:       7123 PREFETCH ISSUED TO LOWER LEVEL:     354178  ACCURACY: 2.01114
L2C TIMELY PREFETCHES:       7123 LATE PREFETCHES: 0 DROPPED PREFETCHES: 0
L2C PREFETCHES SAME FILL-ORIGIN LEVEL: 0 DIFFERENT FILL-ORIGIN LEVEL: 0
L2C AVERAGE MISS LATENCY: 150.228 cycles
L2C RQ	ACCESS:     249890	FORWARD:          0	MERGED:          0	TO_CACHE:     249890
L2C WQ	ACCESS:     295949	FORWARD:          7	MERGED:          0	TO_CACHE:     295949
L2C PQ	ACCESS:     558449	FORWARD:          0	MERGED:          0	TO_CACHE:     558442

L2C Instructions Evicting Data 1267
L2C Translations Evicting Data 492
L2C Data Evicting Data 521531
L2C Instructions Evicting Instructions 0
L2C Translations Evicting Instructions 0
L2C Data Evicting Instructions 1266
L2C Instructions Evicting Translations 0
L2C Translations Evicting Translations 0
L2C Data Evicting Translations 493
L2C Dense regions hint from L2: 0
PSCL5 TOTAL     ACCESS:      30236  HIT:      30236  MISS:          0  HIT %:        100  MISS %:          0   MPKI: 0
PSCL5 LOAD TRANSLATION ACCESS:       1812  HIT:       1812  MISS:          0  HIT %:        100  MISS %:          0   MPKI: 0
PSCL5 TRANSLATION FROM L1D PREFETCHER ACCESS:      28424  HIT:      28424  MISS:          0  HIT %:        100  MISS %:          0   MPKI: 0
PSCL5 PREFETCH  REQUESTED:          0  ISSUED:          0  USEFUL:          0  USELESS:          0
PSCL5 USEFUL LOAD PREFETCHES:          0 PREFETCH ISSUED TO LOWER LEVEL:          0  ACCURACY: -nan
PSCL5 TIMELY PREFETCHES:          0 LATE PREFETCHES: 0 DROPPED PREFETCHES: 0
PSCL5 PREFETCHES SAME FILL-ORIGIN LEVEL: 0 DIFFERENT FILL-ORIGIN LEVEL: 0

PSCL4 TOTAL     ACCESS:      30236  HIT:      30236  MISS:          0  HIT %:        100  MISS %:          0   MPKI: 0
PSCL4 LOAD TRANSLATION ACCESS:       1812  HIT:       1812  MISS:          0  HIT %:        100  MISS %:          0   MPKI: 0
PSCL4 TRANSLATION FROM L1D PREFETCHER ACCESS:      28424  HIT:      28424  MISS:          0  HIT %:        100  MISS %:          0   MPKI: 0
PSCL4 PREFETCH  REQUESTED:          0  ISSUED:          0  USEFUL:          0  USELESS:          0
PSCL4 USEFUL LOAD PREFETCHES:          0 PREFETCH ISSUED TO LOWER LEVEL:          0  ACCURACY: -nan
PSCL4 TIMELY PREFETCHES:          0 LATE PREFETCHES: 0 DROPPED PREFETCHES: 0
PSCL4 PREFETCHES SAME FILL-ORIGIN LEVEL: 0 DIFFERENT FILL-ORIGIN LEVEL: 0

PSCL3 TOTAL     ACCESS:      30236  HIT:      30236  MISS:          0  HIT %:        100  MISS %:          0   MPKI: 0
PSCL3 LOAD TRANSLATION ACCESS:       1812  HIT:       1812  MISS:          0  HIT %:        100  MISS %:          0   MPKI: 0
PSCL3 TRANSLATION FROM L1D PREFETCHER ACCESS:      28424  HIT:      28424  MISS:          0  HIT %:        100  MISS %:          0   MPKI: 0
PSCL3 PREFETCH  REQUESTED:          0  ISSUED:          0  USEFUL:          0  USELESS:          0
PSCL3 USEFUL LOAD PREFETCHES:          0 PREFETCH ISSUED TO LOWER LEVEL:          0  ACCURACY: -nan
PSCL3 TIMELY PREFETCHES:          0 LATE PREFETCHES: 0 DROPPED PREFETCHES: 0
PSCL3 PREFETCHES SAME FILL-ORIGIN LEVEL: 0 DIFFERENT FILL-ORIGIN LEVEL: 0

PSCL2 TOTAL     ACCESS:      30180  HIT:      30178  MISS:          2  HIT %:    99.9934  MISS %: 0.00662691   MPKI: 4e-05
PSCL2 LOAD TRANSLATION ACCESS:       1812  HIT:       1810  MISS:          2  HIT %:    99.8896  MISS %:   0.110375   MPKI: 4e-05
PSCL2 TRANSLATION FROM L1D PREFETCHER ACCESS:      28368  HIT:      28368  MISS:          0  HIT %:        100  MISS %:          0   MPKI: 0
PSCL2 PREFETCH  REQUESTED:          0  ISSUED:          0  USEFUL:          0  USELESS:          0
PSCL2 USEFUL LOAD PREFETCHES:          0 PREFETCH ISSUED TO LOWER LEVEL:          0  ACCURACY: -nan
PSCL2 TIMELY PREFETCHES:          0 LATE PREFETCHES: 0 DROPPED PREFETCHES: 0
PSCL2 PREFETCHES SAME FILL-ORIGIN LEVEL: 0 DIFFERENT FILL-ORIGIN LEVEL: 0

LLC TOTAL     ACCESS:     793959  HIT:     455883  MISS:     338076  HIT %:     57.419  MISS %:     42.581   MPKI: 6.76152
LLC LOAD      ACCESS:      30500  HIT:      11775  MISS:      18725  HIT %:    38.6066  MISS %:    61.3934   MPKI: 0.3745
LLC RFO       ACCESS:     139879  HIT:      49753  MISS:      90126  HIT %:    35.5686  MISS %:    64.4314   MPKI: 1.80252
LLC PREFETCH  ACCESS:     354178  HIT:     198732  MISS:     155446  HIT %:    56.1108  MISS %:    43.8892   MPKI: 3.10892
AGUS PREFETCH L1 MISS: 0
LLC WRITEBACK ACCESS:     268910  HIT:     195597  MISS:      73313  HIT %:     72.737  MISS %:     27.263   MPKI: 1.46626
LLC LOAD TRANSLATION ACCESS:        264  HIT:         18  MISS:        246  HIT %:    6.81818  MISS %:    93.1818   MPKI: 0.00492
LLC TRANSLATION FROM L1D PREFETCHER ACCESS:        228  HIT:          8  MISS:        220  HIT %:    3.50877  MISS %:    96.4912   MPKI: 0.0044
LLC PREFETCH  REQUESTED:          0  ISSUED:          0  USEFUL:      12520  USELESS:      51100
LLC USEFUL LOAD PREFETCHES:      12520 PREFETCH ISSUED TO LOWER LEVEL:     155446  ACCURACY: 8.05424
LLC TIMELY PREFETCHES:      12520 LATE PREFETCHES: 0 DROPPED PREFETCHES: 0
LLC PREFETCHES SAME FILL-ORIGIN LEVEL: 0 DIFFERENT FILL-ORIGIN LEVEL: 0
LLC AVERAGE MISS LATENCY: 186.809 cycles
LLC RQ	ACCESS:     170871	FORWARD:          0	MERGED:          0	TO_CACHE:     170871
LLC WQ	ACCESS:     268910	FORWARD:          0	MERGED:          0	TO_CACHE:     268910
LLC PQ	ACCESS:     354178	FORWARD:          0	MERGED:          0	TO_CACHE:     354178

LLC Dense regions hint to LLC: 0

RAW hits: 27063
Loads Generated: 16614686
Loads sent to L1D: 16587628
Stores Generated: 2196123
Stores sent to L1D: 2196131
Major fault: 0 Minor fault: 6093
Allocated PAGES: 6093
CPU 0 L1D berti prefetcher final stats
0-> Hits: 1560, Late: 59, Early: 0, Misses: 1
1-> Hits: 1, Late: 0, Early: 0, Misses: 0
2-> Hits: 1, Late: 0, Early: 0, Misses: 0
3-> Hits: 156, Late: 0, Early: 0, Misses: 1
4-> Hits: 1621, Late: 0, Early: 0, Misses: 0
6-> Hits: 2, Late: 0, Early: 0, Misses: 0
7-> Hits: 1, Late: 0, Early: 0, Misses: 0
8-> Hits: 11, Late: 0, Early: 0, Misses: 1
a-> Hits: 1, Late: 0, Early: 0, Misses: 0
b-> Hits: 65, Late: 0, Early: 0, Misses: 0
c-> Hits: 26, Late: 0, Early: 0, Misses: 0
d-> Hits: 141, Late: 0, Early: 0, Misses: 0
10-> Hits: 173, Late: 0, Early: 0, Misses: 0
11-> Hits: 0, Late: 0, Early: 0, Misses: 1
12-> Hits: 81, Late: 0, Early: 0, Misses: 0
13-> Hits: 1548, Late: 0, Early: 0, Misses: 0
14-> Hits: 4, Late: 0, Early: 0, Misses: 0
16-> Hits: 0, Late: 0, Early: 0, Misses: 1
17-> Hits: 1, Late: 0, Early: 0, Misses: 0
18-> Hits: 57, Late: 0, Early: 0, Misses: 0
19-> Hits: 25, Late: 0, Early: 0, Misses: 1
1b-> Hits: 1006, Late: 1, Early: 0, Misses: 0
1c-> Hits: 0, Late: 1, Early: 0, Misses: 0
1d-> Hits: 0, Late: 1, Early: 0, Misses: 0
1e-> Hits: 0, Late: 0, Early: 0, Misses: 1
1f-> Hits: 8, Late: 0, Early: 0, Misses: 0
20-> Hits: 66, Late: 0, Early: 0, Misses: 0
25-> Hits: 0, Late: 1, Early: 0, Misses: 0
26-> Hits: 60, Late: 0, Early: 0, Misses: 0
27-> Hits: 5, Late: 0, Early: 0, Misses: 0
29-> Hits: 0, Late: 1, Early: 0, Misses: 0
2a-> Hits: 1625, Late: 0, Early: 0, Misses: 0
2b-> Hits: 1506, Late: 0, Early: 0, Misses: 0
2c-> Hits: 1, Late: 0, Early: 0, Misses: 0
2e-> Hits: 1, Late: 0, Early: 0, Misses: 0
2f-> Hits: 19, Late: 0, Early: 0, Misses: 0
30-> Hits: 1636, Late: 0, Early: 0, Misses: 0
32-> Hits: 1, Late: 0, Early: 0, Misses: 0
34-> Hits: 1, Late: 0, Early: 0, Misses: 0
35-> Hits: 1, Late: 0, Early: 0, Misses: 0
36-> Hits: 0, Late: 0, Early: 0, Misses: 1
38-> Hits: 60, Late: 0, Early: 0, Misses: 60
39-> Hits: 1, Late: 0, Early: 0, Misses: 0
3c-> Hits: 4, Late: 0, Early: 0, Misses: 0
3e-> Hits: 6, Late: 0, Early: 0, Misses: 0
40-> Hits: 135, Late: 1, Early: 0, Misses: 0
43-> Hits: 20, Late: 0, Early: 0, Misses: 0
44-> Hits: 20, Late: 0, Early: 0, Misses: 228
45-> Hits: 11, Late: 1, Early: 0, Misses: 0
46-> Hits: 60, Late: 0, Early: 0, Misses: 0
47-> Hits: 6, Late: 0, Early: 0, Misses: 1
48-> Hits: 135, Late: 0, Early: 0, Misses: 0
49-> Hits: 3, Late: 0, Early: 0, Misses: 0
4a-> Hits: 1626, Late: 0, Early: 0, Misses: 0
4b-> Hits: 8, Late: 0, Early: 0, Misses: 0
4d-> Hits: 185, Late: 0, Early: 0, Misses: 1
4e-> Hits: 15, Late: 0, Early: 0, Misses: 0
4f-> Hits: 0, Late: 1, Early: 0, Misses: 0
50-> Hits: 7, Late: 0, Early: 0, Misses: 0
51-> Hits: 3, Late: 0, Early: 0, Misses: 0
52-> Hits: 1621, Late: 1, Early: 0, Misses: 0
53-> Hits: 10, Late: 0, Early: 0, Misses: 0
54-> Hits: 36, Late: 0, Early: 0, Misses: 0
58-> Hits: 26, Late: 0, Early: 0, Misses: 0
59-> Hits: 51, Late: 1, Early: 0, Misses: 0
5b-> Hits: 10, Late: 0, Early: 0, Misses: 0
5c-> Hits: 60, Late: 0, Early: 0, Misses: 0
5d-> Hits: 2, Late: 1, Early: 0, Misses: 0
5e-> Hits: 195, Late: 0, Early: 0, Misses: 0
61-> Hits: 1, Late: 0, Early: 0, Misses: 0
63-> Hits: 55, Late: 0, Early: 0, Misses: 0
64-> Hits: 0, Late: 1, Early: 0, Misses: 0
66-> Hits: 174, Late: 0, Early: 0, Misses: 0
67-> Hits: 253, Late: 3, Early: 0, Misses: 0
68-> Hits: 6, Late: 0, Early: 0, Misses: 0
6b-> Hits: 17, Late: 0, Early: 0, Misses: 0
6c-> Hits: 26, Late: 0, Early: 0, Misses: 0
6e-> Hits: 1, Late: 0, Early: 0, Misses: 0
70-> Hits: 14529, Late: 137, Early: 0, Misses: 0
71-> Hits: 64, Late: 7, Early: 0, Misses: 0
74-> Hits: 3443, Late: 126, Early: 0, Misses: 0
75-> Hits: 1604, Late: 0, Early: 0, Misses: 0
76-> Hits: 1, Late: 0, Early: 0, Misses: 0
77-> Hits: 111, Late: 0, Early: 0, Misses: 1
78-> Hits: 62, Late: 0, Early: 0, Misses: 0
79-> Hits: 13826, Late: 752, Early: 0, Misses: 0
7b-> Hits: 0, Late: 1, Early: 0, Misses: 0
7c-> Hits: 73, Late: 0, Early: 0, Misses: 0
7d-> Hits: 3466, Late: 543, Early: 0, Misses: 0
80-> Hits: 8835, Late: 31, Early: 0, Misses: 0
81-> Hits: 28, Late: 2, Early: 0, Misses: 0
83-> Hits: 27, Late: 2, Early: 0, Misses: 0
84-> Hits: 48, Late: 0, Early: 0, Misses: 0
85-> Hits: 1, Late: 0, Early: 0, Misses: 0
86-> Hits: 8700, Late: 1, Early: 0, Misses: 48
87-> Hits: 148, Late: 0, Early: 0, Misses: 2
88-> Hits: 6, Late: 0, Early: 0, Misses: 1
89-> Hits: 0, Late: 1, Early: 0, Misses: 0
8a-> Hits: 792, Late: 0, Early: 0, Misses: 0
8c-> Hits: 8637, Late: 0, Early: 0, Misses: 66
8d-> Hits: 13, Late: 0, Early: 0, Misses: 0
90-> Hits: 32, Late: 0, Early: 0, Misses: 0
92-> Hits: 8618, Late: 160, Early: 0, Misses: 0
94-> Hits: 5, Late: 0, Early: 0, Misses: 0
97-> Hits: 8571, Late: 160, Early: 0, Misses: 0
98-> Hits: 24, Late: 0, Early: 0, Misses: 0
99-> Hits: 0, Late: 0, Early: 0, Misses: 1
9c-> Hits: 1, Late: 0, Early: 0, Misses: 0
9d-> Hits: 39, Late: 0, Early: 0, Misses: 0
a0-> Hits: 7, Late: 0, Early: 0, Misses: 0
a1-> Hits: 0, Late: 1, Early: 0, Misses: 1
a3-> Hits: 321, Late: 0, Early: 0, Misses: 0
a4-> Hits: 4871, Late: 0, Early: 0, Misses: 4
a6-> Hits: 5, Late: 0, Early: 0, Misses: 0
a7-> Hits: 3, Late: 0, Early: 0, Misses: 0
a8-> Hits: 9, Late: 0, Early: 0, Misses: 0
ab-> Hits: 1, Late: 0, Early: 0, Misses: 0
ac-> Hits: 0, Late: 0, Early: 0, Misses: 1
ad-> Hits: 84, Late: 0, Early: 0, Misses: 0
ae-> Hits: 1, Late: 1, Early: 0, Misses: 0
af-> Hits: 1, Late: 0, Early: 0, Misses: 0
b0-> Hits: 104, Late: 6, Early: 0, Misses: 0
b1-> Hits: 34, Late: 1, Early: 0, Misses: 0
b3-> Hits: 0, Late: 1, Early: 0, Misses: 0
b4-> Hits: 1566, Late: 58, Early: 0, Misses: 0
b6-> Hits: 0, Late: 1, Early: 0, Misses: 0
b7-> Hits: 7678, Late: 0, Early: 0, Misses: 5
b9-> Hits: 341, Late: 0, Early: 0, Misses: 0
ba-> Hits: 3, Late: 0, Early: 0, Misses: 0
bc-> Hits: 4, Late: 0, Early: 0, Misses: 0
bd-> Hits: 1567, Late: 57, Early: 0, Misses: 0
bf-> Hits: 2, Late: 0, Early: 0, Misses: 0
c1-> Hits: 856, Late: 0, Early: 0, Misses: 0
c3-> Hits: 5241, Late: 0, Early: 0, Misses: 5
c6-> Hits: 4, Late: 0, Early: 0, Misses: 0
c7-> Hits: 2, Late: 0, Early: 0, Misses: 0
c8-> Hits: 1620, Late: 0, Early: 0, Misses: 0
c9-> Hits: 0, Late: 0, Early: 0, Misses: 1
ce-> Hits: 3, Late: 1, Early: 0, Misses: 0
cf-> Hits: 8533, Late: 8, Early: 0, Misses: 0
d0-> Hits: 18086, Late: 388, Early: 0, Misses: 0
d1-> Hits: 509, Late: 1115, Early: 0, Misses: 1
d2-> Hits: 1, Late: 0, Early: 0, Misses: 0
d4-> Hits: 1621, Late: 0, Early: 0, Misses: 0
d5-> Hits: 16469, Late: 280, Early: 0, Misses: 1
d6-> Hits: 0, Late: 1, Early: 0, Misses: 0
d7-> Hits: 7297, Late: 0, Early: 0, Misses: 0
d8-> Hits: 81, Late: 0, Early: 0, Misses: 0
da-> Hits: 16719, Late: 7, Early: 0, Misses: 0
dd-> Hits: 1, Late: 0, Early: 0, Misses: 0
e0-> Hits: 1625, Late: 0, Early: 0, Misses: 0
e1-> Hits: 1, Late: 0, Early: 0, Misses: 1
e2-> Hits: 101, Late: 1, Early: 0, Misses: 0
e3-> Hits: 79, Late: 0, Early: 0, Misses: 0
e4-> Hits: 513, Late: 1111, Early: 0, Misses: 0
e5-> Hits: 16086, Late: 10, Early: 0, Misses: 0
e7-> Hits: 5, Late: 0, Early: 0, Misses: 0
e9-> Hits: 59, Late: 2, Early: 0, Misses: 0
eb-> Hits: 0, Late: 1, Early: 0, Misses: 0
ec-> Hits: 0, Late: 0, Early: 0, Misses: 1
ed-> Hits: 70, Late: 11, Early: 0, Misses: 1
ee-> Hits: 1435, Late: 0, Early: 0, Misses: 0
f0-> Hits: 1561, Late: 59, Early: 0, Misses: 0
f1-> Hits: 77, Late: 0, Early: 0, Misses: 1
f2-> Hits: 0, Late: 1, Early: 0, Misses: 0
f4-> Hits: 2, Late: 0, Early: 0, Misses: 0
f7-> Hits: 1, Late: 0, Early: 0, Misses: 0
f8-> Hits: 1520, Late: 98, Early: 0, Misses: 0
f9-> Hits: 2, Late: 0, Early: 0, Misses: 1
fa-> Hits: 2, Late: 0, Early: 0, Misses: 0
fd-> Hits: 2, Late: 0, Early: 0, Misses: 0
100-> Hits: 152, Late: 2, Early: 0, Misses: 0
101-> Hits: 0, Late: 0, Early: 0, Misses: 1
102-> Hits: 475, Late: 1149, Early: 0, Misses: 0
104-> Hits: 4, Late: 0, Early: 0, Misses: 1
105-> Hits: 2, Late: 0, Early: 0, Misses: 0
107-> Hits: 1, Late: 0, Early: 0, Misses: 0
10a-> Hits: 1620, Late: 0, Early: 0, Misses: 0
10b-> Hits: 43, Late: 0, Early: 0, Misses: 2
10c-> Hits: 189, Late: 2, Early: 0, Misses: 1
10d-> Hits: 195, Late: 0, Early: 0, Misses: 0
10f-> Hits: 284, Late: 4, Early: 0, Misses: 0
111-> Hits: 71, Late: 0, Early: 0, Misses: 0
113-> Hits: 66, Late: 4, Early: 0, Misses: 0
114-> Hits: 2, Late: 0, Early: 0, Misses: 0
115-> Hits: 2, Late: 0, Early: 0, Misses: 0
117-> Hits: 59, Late: 8, Early: 0, Misses: 0
11b-> Hits: 61, Late: 0, Early: 0, Misses: 0
11c-> Hits: 58, Late: 0, Early: 0, Misses: 0
11e-> Hits: 0, Late: 0, Early: 0, Misses: 2
11f-> Hits: 1, Late: 0, Early: 0, Misses: 0
120-> Hits: 1, Late: 0, Early: 0, Misses: 0
121-> Hits: 0, Late: 0, Early: 0, Misses: 1
122-> Hits: 1620, Late: 0, Early: 0, Misses: 0
125-> Hits: 66, Late: 0, Early: 0, Misses: 0
126-> Hits: 212, Late: 0, Early: 0, Misses: 0
129-> Hits: 97, Late: 1, Early: 0, Misses: 0
12b-> Hits: 1, Late: 0, Early: 0, Misses: 4
12c-> Hits: 139, Late: 0, Early: 0, Misses: 0
12e-> Hits: 3, Late: 0, Early: 0, Misses: 0
131-> Hits: 0, Late: 1, Early: 0, Misses: 0
132-> Hits: 56, Late: 0, Early: 0, Misses: 0
133-> Hits: 4, Late: 2, Early: 0, Misses: 0
134-> Hits: 137, Late: 0, Early: 0, Misses: 0
135-> Hits: 10, Late: 0, Early: 0, Misses: 0
137-> Hits: 1, Late: 0, Early: 0, Misses: 0
138-> Hits: 25, Late: 0, Early: 0, Misses: 0
139-> Hits: 1, Late: 0, Early: 0, Misses: 0
13b-> Hits: 54, Late: 0, Early: 0, Misses: 0
13c-> Hits: 2, Late: 0, Early: 0, Misses: 0
13e-> Hits: 55, Late: 0, Early: 0, Misses: 2
13f-> Hits: 28, Late: 0, Early: 0, Misses: 0
140-> Hits: 1173, Late: 77, Early: 0, Misses: 0
141-> Hits: 1, Late: 0, Early: 0, Misses: 1
142-> Hits: 3, Late: 0, Early: 0, Misses: 0
143-> Hits: 71, Late: 0, Early: 0, Misses: 0
144-> Hits: 1, Late: 0, Early: 0, Misses: 0
145-> Hits: 1569, Late: 0, Early: 0, Misses: 0
146-> Hits: 0, Late: 1, Early: 0, Misses: 0
147-> Hits: 2, Late: 0, Early: 0, Misses: 0
148-> Hits: 0, Late: 4, Early: 0, Misses: 1
149-> Hits: 47, Late: 1, Early: 0, Misses: 0
14b-> Hits: 1517, Late: 9, Early: 0, Misses: 0
14d-> Hits: 1, Late: 0, Early: 0, Misses: 61
14e-> Hits: 4, Late: 0, Early: 0, Misses: 0
150-> Hits: 1620, Late: 0, Early: 0, Misses: 0
153-> Hits: 4, Late: 0, Early: 0, Misses: 2
155-> Hits: 37, Late: 0, Early: 0, Misses: 59
156-> Hits: 3, Late: 2, Early: 0, Misses: 0
15b-> Hits: 307, Late: 0, Early: 0, Misses: 0
15c-> Hits: 1, Late: 0, Early: 0, Misses: 0
15d-> Hits: 5, Late: 0, Early: 0, Misses: 0
15f-> Hits: 4, Late: 1, Early: 0, Misses: 0
160-> Hits: 44, Late: 0, Early: 0, Misses: 0
161-> Hits: 574, Late: 0, Early: 0, Misses: 0
163-> Hits: 81, Late: 0, Early: 0, Misses: 0
167-> Hits: 0, Late: 0, Early: 0, Misses: 1
168-> Hits: 6, Late: 0, Early: 0, Misses: 0
16a-> Hits: 0, Late: 1, Early: 0, Misses: 1
16b-> Hits: 5, Late: 0, Early: 0, Misses: 0
16c-> Hits: 1620, Late: 0, Early: 0, Misses: 0
16d-> Hits: 1, Late: 0, Early: 0, Misses: 0
16e-> Hits: 7, Late: 0, Early: 0, Misses: 0
170-> Hits: 4018, Late: 24, Early: 0, Misses: 10
171-> Hits: 304, Late: 0, Early: 0, Misses: 0
173-> Hits: 6, Late: 0, Early: 0, Misses: 0
175-> Hits: 3325, Late: 53, Early: 0, Misses: 0
176-> Hits: 81, Late: 0, Early: 0, Misses: 0
177-> Hits: 1, Late: 0, Early: 0, Misses: 0
178-> Hits: 3, Late: 0, Early: 0, Misses: 0
17a-> Hits: 3736, Late: 10, Early: 0, Misses: 0
17c-> Hits: 345, Late: 0, Early: 0, Misses: 0
17f-> Hits: 5, Late: 0, Early: 0, Misses: 0
180-> Hits: 1, Late: 1, Early: 0, Misses: 0
184-> Hits: 4094, Late: 43, Early: 0, Misses: 0
186-> Hits: 13, Late: 0, Early: 0, Misses: 0
187-> Hits: 3, Late: 0, Early: 0, Misses: 0
18a-> Hits: 7, Late: 1, Early: 0, Misses: 0
18b-> Hits: 4, Late: 0, Early: 0, Misses: 0
18c-> Hits: 6, Late: 0, Early: 0, Misses: 0
18e-> Hits: 2, Late: 0, Early: 0, Misses: 0
18f-> Hits: 4, Late: 0, Early: 0, Misses: 0
190-> Hits: 2, Late: 0, Early: 0, Misses: 0
191-> Hits: 61, Late: 0, Early: 0, Misses: 0
192-> Hits: 81, Late: 0, Early: 0, Misses: 0
195-> Hits: 1, Late: 0, Early: 0, Misses: 0
196-> Hits: 21, Late: 0, Early: 0, Misses: 1
197-> Hits: 6, Late: 0, Early: 0, Misses: 5
198-> Hits: 1, Late: 0, Early: 0, Misses: 0
199-> Hits: 1, Late: 0, Early: 0, Misses: 0
19b-> Hits: 3, Late: 0, Early: 0, Misses: 0
19c-> Hits: 1, Late: 0, Early: 0, Misses: 0
19d-> Hits: 15, Late: 0, Early: 0, Misses: 0
19e-> Hits: 34, Late: 0, Early: 0, Misses: 0
19f-> Hits: 232, Late: 0, Early: 0, Misses: 0
1a0-> Hits: 5, Late: 1, Early: 0, Misses: 0
1a1-> Hits: 3, Late: 0, Early: 0, Misses: 0
1a4-> Hits: 0, Late: 1, Early: 0, Misses: 2
1a5-> Hits: 81, Late: 0, Early: 0, Misses: 0
1a6-> Hits: 15, Late: 0, Early: 0, Misses: 0
1a8-> Hits: 3, Late: 0, Early: 0, Misses: 0
1ab-> Hits: 57, Late: 0, Early: 0, Misses: 0
1ad-> Hits: 5, Late: 0, Early: 0, Misses: 0
1ae-> Hits: 1, Late: 0, Early: 0, Misses: 0
1af-> Hits: 229, Late: 0, Early: 0, Misses: 0
1b0-> Hits: 60, Late: 0, Early: 0, Misses: 0
1b1-> Hits: 2, Late: 1, Early: 0, Misses: 3
1b3-> Hits: 85, Late: 4, Early: 0, Misses: 0
1b5-> Hits: 22, Late: 0, Early: 0, Misses: 0
1b6-> Hits: 0, Late: 0, Early: 0, Misses: 5
1b8-> Hits: 262, Late: 0, Early: 0, Misses: 0
1b9-> Hits: 9, Late: 0, Early: 0, Misses: 0
1bc-> Hits: 1, Late: 0, Early: 0, Misses: 0
1bd-> Hits: 13, Late: 0, Early: 0, Misses: 0
1c0-> Hits: 263, Late: 0, Early: 0, Misses: 0
1c1-> Hits: 82, Late: 0, Early: 0, Misses: 0
1c2-> Hits: 3, Late: 2, Early: 0, Misses: 0
1c4-> Hits: 5, Late: 2, Early: 0, Misses: 0
1c5-> Hits: 57, Late: 0, Early: 0, Misses: 0
1c6-> Hits: 7, Late: 0, Early: 0, Misses: 0
1c7-> Hits: 138, Late: 0, Early: 0, Misses: 0
1c8-> Hits: 7, Late: 0, Early: 0, Misses: 0
1c9-> Hits: 3, Late: 0, Early: 0, Misses: 0
1ca-> Hits: 33, Late: 0, Early: 0, Misses: 0
1cb-> Hits: 3, Late: 0, Early: 0, Misses: 0
1cc-> Hits: 2, Late: 1, Early: 0, Misses: 0
1cd-> Hits: 5, Late: 5, Early: 0, Misses: 2
1ce-> Hits: 4, Late: 0, Early: 0, Misses: 0
1cf-> Hits: 11, Late: 0, Early: 0, Misses: 0
1d0-> Hits: 1650, Late: 26, Early: 0, Misses: 0
1d1-> Hits: 2, Late: 1, Early: 0, Misses: 0
1d3-> Hits: 4, Late: 1, Early: 0, Misses: 0
1d4-> Hits: 33, Late: 0, Early: 0, Misses: 0
1d5-> Hits: 142, Late: 0, Early: 0, Misses: 0
1d6-> Hits: 5, Late: 0, Early: 0, Misses: 0
1d8-> Hits: 6399, Late: 0, Early: 0, Misses: 0
1da-> Hits: 6, Late: 1, Early: 0, Misses: 0
1dd-> Hits: 1, Late: 0, Early: 0, Misses: 0
1de-> Hits: 4, Late: 0, Early: 0, Misses: 0
1df-> Hits: 6014, Late: 0, Early: 0, Misses: 0
1e0-> Hits: 148, Late: 10, Early: 0, Misses: 0
1e1-> Hits: 1, Late: 0, Early: 0, Misses: 0
1e3-> Hits: 1, Late: 0, Early: 0, Misses: 0
1e5-> Hits: 1, Late: 0, Early: 0, Misses: 59
1e7-> Hits: 4, Late: 0, Early: 0, Misses: 0
1ea-> Hits: 6, Late: 0, Early: 0, Misses: 0
1ec-> Hits: 1578, Late: 0, Early: 0, Misses: 0
1ee-> Hits: 155, Late: 3, Early: 0, Misses: 0
1ef-> Hits: 29, Late: 1, Early: 0, Misses: 0
1f0-> Hits: 14, Late: 0, Early: 0, Misses: 0
1f2-> Hits: 0, Late: 0, Early: 0, Misses: 5
1f3-> Hits: 2007, Late: 0, Early: 0, Misses: 0
1f4-> Hits: 9, Late: 0, Early: 0, Misses: 0
1f5-> Hits: 113, Late: 0, Early: 0, Misses: 0
1f6-> Hits: 140, Late: 0, Early: 0, Misses: 0
1f8-> Hits: 1, Late: 1, Early: 0, Misses: 0
1f9-> Hits: 10, Late: 0, Early: 0, Misses: 0
1fb-> Hits: 1057, Late: 0, Early: 0, Misses: 1
1fc-> Hits: 8, Late: 0, Early: 0, Misses: 4
1fd-> Hits: 24, Late: 0, Early: 0, Misses: 0
1fe-> Hits: 4, Late: 0, Early: 0, Misses: 0
200-> Hits: 5601, Late: 24, Early: 0, Misses: 0
201-> Hits: 3, Late: 1, Early: 0, Misses: 0
202-> Hits: 1, Late: 0, Early: 0, Misses: 0
203-> Hits: 30, Late: 0, Early: 0, Misses: 0
204-> Hits: 5346, Late: 137, Early: 0, Misses: 0
205-> Hits: 6308, Late: 0, Early: 0, Misses: 0
206-> Hits: 4, Late: 0, Early: 0, Misses: 0
207-> Hits: 1, Late: 0, Early: 0, Misses: 0
208-> Hits: 5451, Late: 0, Early: 0, Misses: 0
209-> Hits: 7135, Late: 0, Early: 0, Misses: 5
20a-> Hits: 1, Late: 0, Early: 0, Misses: 0
20b-> Hits: 87, Late: 0, Early: 0, Misses: 0
20d-> Hits: 6280, Late: 4, Early: 0, Misses: 0
20f-> Hits: 4, Late: 0, Early: 0, Misses: 0
210-> Hits: 8424, Late: 59, Early: 0, Misses: 0
211-> Hits: 7051, Late: 0, Early: 0, Misses: 5
212-> Hits: 286, Late: 0, Early: 0, Misses: 0
213-> Hits: 0, Late: 1, Early: 0, Misses: 1
214-> Hits: 1, Late: 0, Early: 0, Misses: 0
215-> Hits: 51, Late: 0, Early: 0, Misses: 0
216-> Hits: 8283, Late: 0, Early: 0, Misses: 104
218-> Hits: 3, Late: 0, Early: 0, Misses: 0
219-> Hits: 85, Late: 0, Early: 0, Misses: 0
21a-> Hits: 166, Late: 0, Early: 0, Misses: 0
21b-> Hits: 27, Late: 0, Early: 0, Misses: 1
21c-> Hits: 8231, Late: 0, Early: 0, Misses: 108
21d-> Hits: 5, Late: 0, Early: 0, Misses: 0
21e-> Hits: 1, Late: 0, Early: 0, Misses: 0
21f-> Hits: 6259, Late: 0, Early: 0, Misses: 0
220-> Hits: 59, Late: 0, Early: 0, Misses: 0
221-> Hits: 5, Late: 0, Early: 0, Misses: 0
222-> Hits: 8308, Late: 1, Early: 0, Misses: 129
223-> Hits: 89, Late: 2, Early: 0, Misses: 0
227-> Hits: 8226, Late: 0, Early: 0, Misses: 115
228-> Hits: 173, Late: 1, Early: 0, Misses: 0
229-> Hits: 60, Late: 0, Early: 0, Misses: 0
22b-> Hits: 3, Late: 0, Early: 0, Misses: 0
22f-> Hits: 2, Late: 0, Early: 0, Misses: 0
230-> Hits: 465357, Late: 7134, Early: 0, Misses: 0
231-> Hits: 1, Late: 0, Early: 0, Misses: 0
232-> Hits: 2, Late: 0, Early: 0, Misses: 0
233-> Hits: 30, Late: 0, Early: 0, Misses: 0
234-> Hits: 2480, Late: 0, Early: 0, Misses: 3
236-> Hits: 467753, Late: 27, Early: 0, Misses: 0
237-> Hits: 4, Late: 0, Early: 0, Misses: 0
238-> Hits: 5777, Late: 0, Early: 0, Misses: 0
239-> Hits: 1745, Late: 0, Early: 0, Misses: 0
23a-> Hits: 1, Late: 0, Early: 0, Misses: 0
23b-> Hits: 2, Late: 0, Early: 0, Misses: 0
23c-> Hits: 1, Late: 0, Early: 0, Misses: 0
23d-> Hits: 33120, Late: 29, Early: 0, Misses: 0
23e-> Hits: 800, Late: 4329, Early: 0, Misses: 0
23f-> Hits: 8, Late: 1, Early: 0, Misses: 0
240-> Hits: 1, Late: 0, Early: 0, Misses: 0
241-> Hits: 6154, Late: 0, Early: 0, Misses: 0
242-> Hits: 60, Late: 0, Early: 0, Misses: 0
243-> Hits: 5, Late: 0, Early: 0, Misses: 0
244-> Hits: 39309, Late: 185, Early: 0, Misses: 0
245-> Hits: 27, Late: 7, Early: 0, Misses: 0
246-> Hits: 2, Late: 0, Early: 0, Misses: 0
247-> Hits: 4331, Late: 0, Early: 0, Misses: 2
249-> Hits: 0, Late: 1, Early: 0, Misses: 0
24b-> Hits: 61035, Late: 336, Early: 0, Misses: 3
24f-> Hits: 6, Late: 0, Early: 0, Misses: 0
250-> Hits: 1, Late: 0, Early: 0, Misses: 0
251-> Hits: 61384, Late: 552, Early: 0, Misses: 0
252-> Hits: 0, Late: 1, Early: 0, Misses: 0
253-> Hits: 4523, Late: 0, Early: 0, Misses: 0
254-> Hits: 27, Late: 351, Early: 0, Misses: 0
256-> Hits: 3, Late: 0, Early: 0, Misses: 0
257-> Hits: 48, Late: 0, Early: 0, Misses: 0
258-> Hits: 81642, Late: 1133, Early: 0, Misses: 0
25b-> Hits: 1, Late: 0, Early: 0, Misses: 0
25c-> Hits: 5, Late: 0, Early: 0, Misses: 0
25e-> Hits: 9, Late: 0, Early: 0, Misses: 0
25f-> Hits: 13533, Late: 0, Early: 0, Misses: 0
260-> Hits: 664, Late: 1, Early: 0, Misses: 0
262-> Hits: 3, Late: 0, Early: 0, Misses: 0
264-> Hits: 3, Late: 0, Early: 0, Misses: 0
265-> Hits: 97, Late: 0, Early: 0, Misses: 0
266-> Hits: 3, Late: 0, Early: 0, Misses: 0
267-> Hits: 189296, Late: 0, Early: 0, Misses: 8
268-> Hits: 2, Late: 0, Early: 0, Misses: 1
269-> Hits: 6, Late: 14, Early: 0, Misses: 0
26a-> Hits: 5, Late: 1, Early: 0, Misses: 0
26c-> Hits: 2, Late: 0, Early: 0, Misses: 0
26d-> Hits: 116, Late: 0, Early: 0, Misses: 0
26f-> Hits: 4, Late: 0, Early: 0, Misses: 0
270-> Hits: 1, Late: 1, Early: 0, Misses: 0
271-> Hits: 5, Late: 0, Early: 0, Misses: 0
272-> Hits: 4, Late: 0, Early: 0, Misses: 0
273-> Hits: 1620, Late: 0, Early: 0, Misses: 0
276-> Hits: 0, Late: 5, Early: 0, Misses: 0
277-> Hits: 241, Late: 0, Early: 0, Misses: 0
278-> Hits: 81, Late: 2, Early: 0, Misses: 0
279-> Hits: 3, Late: 0, Early: 0, Misses: 0
27a-> Hits: 0, Late: 1, Early: 0, Misses: 0
27b-> Hits: 1424, Late: 0, Early: 0, Misses: 0
27d-> Hits: 81, Late: 0, Early: 0, Misses: 0
27e-> Hits: 56821, Late: 0, Early: 0, Misses: 0
27f-> Hits: 225, Late: 0, Early: 0, Misses: 0
280-> Hits: 10, Late: 3, Early: 0, Misses: 0
282-> Hits: 1, Late: 0, Early: 0, Misses: 0
283-> Hits: 524, Late: 0, Early: 0, Misses: 0
284-> Hits: 3, Late: 0, Early: 0, Misses: 0
285-> Hits: 2, Late: 0, Early: 0, Misses: 0
288-> Hits: 1, Late: 1, Early: 0, Misses: 1
28b-> Hits: 194, Late: 4, Early: 0, Misses: 0
28c-> Hits: 241, Late: 0, Early: 0, Misses: 4
28e-> Hits: 423876, Late: 0, Early: 0, Misses: 1
290-> Hits: 16158, Late: 263, Early: 0, Misses: 0
292-> Hits: 6, Late: 0, Early: 0, Misses: 0
293-> Hits: 4560, Late: 0, Early: 0, Misses: 0
294-> Hits: 14947, Late: 1195, Early: 0, Misses: 0
296-> Hits: 2, Late: 0, Early: 0, Misses: 3
297-> Hits: 240, Late: 0, Early: 0, Misses: 0
29a-> Hits: 424388, Late: 0, Early: 0, Misses: 0
29b-> Hits: 4067, Late: 0, Early: 0, Misses: 4
29c-> Hits: 3, Late: 2, Early: 0, Misses: 0
29d-> Hits: 0, Late: 1, Early: 0, Misses: 0
29e-> Hits: 6, Late: 0, Early: 0, Misses: 0
29f-> Hits: 15511, Late: 263, Early: 0, Misses: 0
2a1-> Hits: 12, Late: 0, Early: 0, Misses: 3
2a2-> Hits: 0, Late: 0, Early: 0, Misses: 4
2a3-> Hits: 19061, Late: 1164, Early: 0, Misses: 0
2a4-> Hits: 6, Late: 0, Early: 0, Misses: 0
2a5-> Hits: 0, Late: 1, Early: 0, Misses: 0
2a6-> Hits: 468788, Late: 0, Early: 0, Misses: 7
2a8-> Hits: 0, Late: 1, Early: 0, Misses: 0
2a9-> Hits: 5, Late: 0, Early: 0, Misses: 0
2aa-> Hits: 4, Late: 0, Early: 0, Misses: 1
2ab-> Hits: 5, Late: 0, Early: 0, Misses: 0
2ad-> Hits: 5, Late: 0, Early: 0, Misses: 0
2ae-> Hits: 441868, Late: 0, Early: 0, Misses: 0
2af-> Hits: 14245, Late: 315, Early: 0, Misses: 0
2b0-> Hits: 2, Late: 0, Early: 0, Misses: 0
2b1-> Hits: 1, Late: 0, Early: 0, Misses: 0
2b3-> Hits: 2, Late: 0, Early: 0, Misses: 0
2b4-> Hits: 1, Late: 0, Early: 0, Misses: 0
2b5-> Hits: 12461, Late: 1113, Early: 0, Misses: 0
2b6-> Hits: 6264, Late: 0, Early: 0, Misses: 4
2b7-> Hits: 8, Late: 0, Early: 0, Misses: 0
2b8-> Hits: 1, Late: 0, Early: 0, Misses: 0
2b9-> Hits: 140, Late: 0, Early: 0, Misses: 0
2ba-> Hits: 5, Late: 0, Early: 0, Misses: 0
2bb-> Hits: 4, Late: 0, Early: 0, Misses: 1
2bd-> Hits: 13, Late: 0, Early: 0, Misses: 0
2be-> Hits: 2283, Late: 0, Early: 0, Misses: 0
2bf-> Hits: 0, Late: 0, Early: 0, Misses: 4
2c0-> Hits: 5, Late: 1, Early: 0, Misses: 0
2c1-> Hits: 3, Late: 0, Early: 0, Misses: 0
2c2-> Hits: 9, Late: 1, Early: 0, Misses: 0
2c3-> Hits: 0, Late: 0, Early: 0, Misses: 1
2c6-> Hits: 0, Late: 0, Early: 0, Misses: 3
2c9-> Hits: 136, Late: 1, Early: 0, Misses: 0
2ca-> Hits: 3239, Late: 0, Early: 0, Misses: 0
2cb-> Hits: 260888, Late: 0, Early: 0, Misses: 5
2cc-> Hits: 5, Late: 0, Early: 0, Misses: 0
2cd-> Hits: 72, Late: 1, Early: 0, Misses: 0
2ce-> Hits: 0, Late: 1, Early: 0, Misses: 0
2d0-> Hits: 1, Late: 0, Early: 0, Misses: 0
2d1-> Hits: 3, Late: 0, Early: 0, Misses: 0
2d2-> Hits: 391, Late: 0, Early: 0, Misses: 0
2d3-> Hits: 251982, Late: 0, Early: 0, Misses: 2
2d5-> Hits: 186, Late: 0, Early: 0, Misses: 0
2d6-> Hits: 3, Late: 1, Early: 0, Misses: 0
2d8-> Hits: 10, Late: 0, Early: 0, Misses: 0
2da-> Hits: 2, Late: 1, Early: 0, Misses: 5
2db-> Hits: 3, Late: 0, Early: 0, Misses: 0
2df-> Hits: 48, Late: 0, Early: 0, Misses: 0
2e0-> Hits: 1, Late: 0, Early: 0, Misses: 0
2e1-> Hits: 0, Late: 1, Early: 0, Misses: 0
2e2-> Hits: 0, Late: 1, Early: 0, Misses: 0
2e3-> Hits: 6, Late: 0, Early: 0, Misses: 0
2e5-> Hits: 3, Late: 0, Early: 0, Misses: 0
2e7-> Hits: 1622, Late: 0, Early: 0, Misses: 0
2e8-> Hits: 41, Late: 1, Early: 0, Misses: 0
2ea-> Hits: 1, Late: 0, Early: 0, Misses: 0
2eb-> Hits: 2, Late: 0, Early: 0, Misses: 0
2ec-> Hits: 3, Late: 0, Early: 0, Misses: 0
2ed-> Hits: 1, Late: 0, Early: 0, Misses: 0
2ef-> Hits: 3, Late: 0, Early: 0, Misses: 0
2f0-> Hits: 10, Late: 1, Early: 0, Misses: 0
2f2-> Hits: 1, Late: 0, Early: 0, Misses: 0
2f3-> Hits: 6, Late: 0, Early: 0, Misses: 0
2f4-> Hits: 2, Late: 0, Early: 0, Misses: 0
2f5-> Hits: 33, Late: 0, Early: 0, Misses: 0
2f6-> Hits: 0, Late: 1, Early: 0, Misses: 1
2f7-> Hits: 1, Late: 0, Early: 0, Misses: 0
2f8-> Hits: 0, Late: 1, Early: 0, Misses: 0
2f9-> Hits: 1, Late: 0, Early: 0, Misses: 0
2fa-> Hits: 1, Late: 2, Early: 0, Misses: 1
2fb-> Hits: 183, Late: 0, Early: 0, Misses: 0
2fd-> Hits: 1, Late: 0, Early: 0, Misses: 0
2fe-> Hits: 2, Late: 0, Early: 0, Misses: 0
2ff-> Hits: 5, Late: 1, Early: 0, Misses: 1
301-> Hits: 2, Late: 0, Early: 0, Misses: 0
302-> Hits: 1, Late: 0, Early: 0, Misses: 0
303-> Hits: 52, Late: 0, Early: 0, Misses: 0
304-> Hits: 183, Late: 0, Early: 0, Misses: 0
305-> Hits: 6480, Late: 0, Early: 0, Misses: 0
306-> Hits: 3, Late: 0, Early: 0, Misses: 0
307-> Hits: 0, Late: 1, Early: 0, Misses: 0
308-> Hits: 54, Late: 0, Early: 0, Misses: 0
30b-> Hits: 1, Late: 0, Early: 0, Misses: 0
30c-> Hits: 1651, Late: 0, Early: 0, Misses: 0
30e-> Hits: 6, Late: 0, Early: 0, Misses: 0
30f-> Hits: 1, Late: 1, Early: 0, Misses: 0
310-> Hits: 258, Late: 1, Early: 0, Misses: 0
312-> Hits: 6476, Late: 0, Early: 0, Misses: 0
314-> Hits: 7058, Late: 0, Early: 0, Misses: 0
317-> Hits: 160, Late: 0, Early: 0, Misses: 0
318-> Hits: 57, Late: 0, Early: 0, Misses: 0
319-> Hits: 1, Late: 0, Early: 0, Misses: 1
31a-> Hits: 1, Late: 0, Early: 0, Misses: 0
31c-> Hits: 7297, Late: 0, Early: 0, Misses: 0
31d-> Hits: 103106, Late: 264, Early: 0, Misses: 0
31e-> Hits: 1, Late: 0, Early: 0, Misses: 0
31f-> Hits: 0, Late: 0, Early: 0, Misses: 275
320-> Hits: 1309, Late: 4268, Early: 0, Misses: 0
321-> Hits: 1, Late: 0, Early: 0, Misses: 0
322-> Hits: 103128, Late: 215, Early: 0, Misses: 0
323-> Hits: 2, Late: 0, Early: 0, Misses: 0
324-> Hits: 7348, Late: 0, Early: 0, Misses: 0
327-> Hits: 183, Late: 0, Early: 0, Misses: 4
329-> Hits: 3, Late: 0, Early: 0, Misses: 0
32a-> Hits: 52, Late: 152, Early: 0, Misses: 0
32b-> Hits: 52, Late: 2, Early: 0, Misses: 0
32c-> Hits: 3, Late: 0, Early: 0, Misses: 0
32f-> Hits: 74, Late: 0, Early: 0, Misses: 0
330-> Hits: 91, Late: 1, Early: 0, Misses: 0
332-> Hits: 2, Late: 0, Early: 0, Misses: 0
334-> Hits: 1795, Late: 3366, Early: 0, Misses: 0
335-> Hits: 1, Late: 0, Early: 0, Misses: 0
336-> Hits: 1, Late: 0, Early: 0, Misses: 0
337-> Hits: 1, Late: 0, Early: 0, Misses: 0
338-> Hits: 99396, Late: 49, Early: 0, Misses: 2597
339-> Hits: 1556, Late: 0, Early: 0, Misses: 2
33a-> Hits: 1, Late: 0, Early: 0, Misses: 1
33b-> Hits: 476, Late: 0, Early: 0, Misses: 0
33c-> Hits: 54, Late: 0, Early: 0, Misses: 0
33d-> Hits: 54, Late: 0, Early: 0, Misses: 0
33e-> Hits: 0, Late: 1, Early: 0, Misses: 0
340-> Hits: 7425, Late: 0, Early: 0, Misses: 0
341-> Hits: 106485, Late: 4, Early: 0, Misses: 2
342-> Hits: 185, Late: 0, Early: 0, Misses: 0
343-> Hits: 2, Late: 0, Early: 0, Misses: 0
344-> Hits: 2, Late: 0, Early: 0, Misses: 5
345-> Hits: 54, Late: 0, Early: 0, Misses: 0
347-> Hits: 1, Late: 0, Early: 0, Misses: 0
348-> Hits: 7429, Late: 0, Early: 0, Misses: 0
349-> Hits: 1, Late: 0, Early: 0, Misses: 0
34a-> Hits: 261, Late: 0, Early: 0, Misses: 0
34c-> Hits: 0, Late: 3, Early: 0, Misses: 0
34d-> Hits: 1611, Late: 0, Early: 0, Misses: 0
34f-> Hits: 52, Late: 2, Early: 0, Misses: 0
350-> Hits: 1508, Late: 59, Early: 0, Misses: 5
351-> Hits: 0, Late: 1, Early: 0, Misses: 0
352-> Hits: 245, Late: 0, Early: 0, Misses: 0
355-> Hits: 1311, Late: 26, Early: 0, Misses: 0
356-> Hits: 1, Late: 0, Early: 0, Misses: 3
357-> Hits: 4, Late: 0, Early: 0, Misses: 0
358-> Hits: 229, Late: 1, Early: 0, Misses: 0
359-> Hits: 256, Late: 0, Early: 0, Misses: 0
35b-> Hits: 0, Late: 3, Early: 0, Misses: 0
35c-> Hits: 28, Late: 1, Early: 0, Misses: 0
35e-> Hits: 0, Late: 0, Early: 0, Misses: 4
35f-> Hits: 0, Late: 3, Early: 0, Misses: 0
360-> Hits: 1632, Late: 61, Early: 0, Misses: 0
361-> Hits: 0, Late: 0, Early: 0, Misses: 2
362-> Hits: 5, Late: 1, Early: 0, Misses: 0
364-> Hits: 0, Late: 1, Early: 0, Misses: 0
365-> Hits: 1576, Late: 30, Early: 0, Misses: 0
366-> Hits: 7425, Late: 0, Early: 0, Misses: 0
368-> Hits: 1, Late: 0, Early: 0, Misses: 0
369-> Hits: 9, Late: 3, Early: 0, Misses: 0
36b-> Hits: 0, Late: 1, Early: 0, Misses: 0
36c-> Hits: 3, Late: 0, Early: 0, Misses: 0
36d-> Hits: 1, Late: 0, Early: 0, Misses: 0
36e-> Hits: 7425, Late: 0, Early: 0, Misses: 0
36f-> Hits: 63255, Late: 1, Early: 0, Misses: 53
370-> Hits: 1337, Late: 61, Early: 0, Misses: 0
371-> Hits: 28, Late: 0, Early: 0, Misses: 0
372-> Hits: 1541, Late: 2, Early: 0, Misses: 1
374-> Hits: 2, Late: 0, Early: 0, Misses: 0
375-> Hits: 1436, Late: 99, Early: 0, Misses: 4
376-> Hits: 5, Late: 0, Early: 0, Misses: 4
377-> Hits: 24, Late: 1, Early: 0, Misses: 237
379-> Hits: 0, Late: 1, Early: 0, Misses: 0
37a-> Hits: 0, Late: 1, Early: 0, Misses: 0
37c-> Hits: 2, Late: 0, Early: 0, Misses: 0
37d-> Hits: 1, Late: 3, Early: 0, Misses: 0
37e-> Hits: 54, Late: 0, Early: 0, Misses: 4
37f-> Hits: 79587, Late: 4, Early: 0, Misses: 0
380-> Hits: 3, Late: 0, Early: 0, Misses: 0
381-> Hits: 0, Late: 0, Early: 0, Misses: 2
382-> Hits: 999, Late: 0, Early: 0, Misses: 0
384-> Hits: 2, Late: 0, Early: 0, Misses: 3
385-> Hits: 3, Late: 3, Early: 0, Misses: 0
387-> Hits: 620, Late: 0, Early: 0, Misses: 0
388-> Hits: 3, Late: 1, Early: 0, Misses: 0
389-> Hits: 1, Late: 0, Early: 0, Misses: 0
38a-> Hits: 54, Late: 0, Early: 0, Misses: 0
38b-> Hits: 0, Late: 0, Early: 0, Misses: 3
38c-> Hits: 2, Late: 11, Early: 0, Misses: 0
38d-> Hits: 267, Late: 0, Early: 0, Misses: 0
38e-> Hits: 91520, Late: 2, Early: 0, Misses: 0
38f-> Hits: 0, Late: 0, Early: 0, Misses: 3
390-> Hits: 480638, Late: 5427, Early: 0, Misses: 0
391-> Hits: 8, Late: 0, Early: 0, Misses: 0
393-> Hits: 2, Late: 0, Early: 0, Misses: 0
394-> Hits: 0, Late: 4, Early: 0, Misses: 0
395-> Hits: 1917, Late: 0, Early: 0, Misses: 0
396-> Hits: 474048, Late: 0, Early: 0, Misses: 6145
397-> Hits: 5, Late: 1, Early: 0, Misses: 0
399-> Hits: 1369, Late: 31, Early: 0, Misses: 1
39a-> Hits: 3, Late: 0, Early: 0, Misses: 0
39b-> Hits: 5, Late: 0, Early: 0, Misses: 4
39c-> Hits: 473478, Late: 0, Early: 0, Misses: 6147
39d-> Hits: 109, Late: 0, Early: 0, Misses: 0
39e-> Hits: 196, Late: 1424, Early: 0, Misses: 0
39f-> Hits: 6, Late: 3, Early: 0, Misses: 0
3a0-> Hits: 58, Late: 2, Early: 0, Misses: 0
3a2-> Hits: 468422, Late: 0, Early: 0, Misses: 6106
3a3-> Hits: 1363, Late: 58, Early: 0, Misses: 0
3a6-> Hits: 0, Late: 0, Early: 0, Misses: 3
3a8-> Hits: 466962, Late: 1, Early: 0, Misses: 6162
3a9-> Hits: 1612, Late: 16, Early: 0, Misses: 2
3aa-> Hits: 1, Late: 0, Early: 0, Misses: 0
3ab-> Hits: 90686, Late: 19, Early: 0, Misses: 0
3ac-> Hits: 52, Late: 0, Early: 0, Misses: 3
3ad-> Hits: 466323, Late: 126, Early: 0, Misses: 1583
3ae-> Hits: 0, Late: 1, Early: 0, Misses: 0
3af-> Hits: 1, Late: 0, Early: 0, Misses: 0
3b0-> Hits: 88111, Late: 12, Early: 0, Misses: 0
3b1-> Hits: 1631, Late: 3, Early: 0, Misses: 0
3b3-> Hits: 458026, Late: 11317, Early: 0, Misses: 0
3b4-> Hits: 1589, Late: 38, Early: 0, Misses: 0
3b5-> Hits: 5, Late: 0, Early: 0, Misses: 0
3b7-> Hits: 57, Late: 1, Early: 0, Misses: 1
3b8-> Hits: 3, Late: 0, Early: 0, Misses: 0
3b9-> Hits: 150, Late: 0, Early: 0, Misses: 0
3bb-> Hits: 372, Late: 0, Early: 0, Misses: 50
3bc-> Hits: 1, Late: 2, Early: 0, Misses: 1
3be-> Hits: 2920, Late: 36, Early: 0, Misses: 0
3bf-> Hits: 0, Late: 3, Early: 0, Misses: 0
3c1-> Hits: 291274, Late: 1, Early: 0, Misses: 0
3c2-> Hits: 4, Late: 0, Early: 0, Misses: 0
3c3-> Hits: 18, Late: 0, Early: 0, Misses: 4
3c4-> Hits: 0, Late: 0, Early: 0, Misses: 1
3c5-> Hits: 4, Late: 0, Early: 0, Misses: 0
3c6-> Hits: 91712, Late: 15, Early: 0, Misses: 26
3c8-> Hits: 1, Late: 0, Early: 0, Misses: 0
3c9-> Hits: 12, Late: 0, Early: 0, Misses: 0
3ca-> Hits: 3, Late: 1, Early: 0, Misses: 0
3cb-> Hits: 1, Late: 0, Early: 0, Misses: 0
3cc-> Hits: 1621, Late: 0, Early: 0, Misses: 0
3cd-> Hits: 181, Late: 1, Early: 0, Misses: 0
3ce-> Hits: 1, Late: 0, Early: 0, Misses: 0
3cf-> Hits: 6, Late: 0, Early: 0, Misses: 0
3d0-> Hits: 1, Late: 0, Early: 0, Misses: 0
3d1-> Hits: 32, Late: 0, Early: 0, Misses: 0
3d2-> Hits: 2, Late: 1, Early: 0, Misses: 0
3d3-> Hits: 605, Late: 1019, Early: 0, Misses: 0
3d4-> Hits: 1, Late: 0, Early: 0, Misses: 0
3d5-> Hits: 267, Late: 0, Early: 0, Misses: 0
3d6-> Hits: 99084, Late: 0, Early: 0, Misses: 0
3d7-> Hits: 4, Late: 0, Early: 0, Misses: 0
3d8-> Hits: 39958, Late: 1, Early: 0, Misses: 0
3d9-> Hits: 39, Late: 0, Early: 0, Misses: 0
3da-> Hits: 1, Late: 0, Early: 0, Misses: 0
3db-> Hits: 1, Late: 1, Early: 0, Misses: 0
3dc-> Hits: 5, Late: 0, Early: 0, Misses: 0
3dd-> Hits: 1, Late: 0, Early: 0, Misses: 0
3de-> Hits: 3, Late: 1, Early: 0, Misses: 0
3e0-> Hits: 230, Late: 1, Early: 0, Misses: 0
3e1-> Hits: 95, Late: 0, Early: 0, Misses: 0
3e2-> Hits: 258, Late: 0, Early: 0, Misses: 0
3e4-> Hits: 608, Late: 1016, Early: 0, Misses: 0
3e5-> Hits: 106358, Late: 0, Early: 0, Misses: 0
3e6-> Hits: 58, Late: 1, Early: 0, Misses: 2
3e8-> Hits: 429487, Late: 5, Early: 0, Misses: 0
3e9-> Hits: 0, Late: 1, Early: 0, Misses: 0
3ec-> Hits: 1711, Late: 1, Early: 0, Misses: 1
3ed-> Hits: 106267, Late: 222, Early: 0, Misses: 0
3ee-> Hits: 5, Late: 1, Early: 0, Misses: 0
3f0-> Hits: 6785, Late: 262, Early: 0, Misses: 2
3f1-> Hits: 6606, Late: 0, Early: 0, Misses: 0
3f4-> Hits: 207133, Late: 0, Early: 0, Misses: 0
3f5-> Hits: 0, Late: 3, Early: 0, Misses: 0
3f6-> Hits: 3602, Late: 1, Early: 0, Misses: 7
3f7-> Hits: 2, Late: 0, Early: 0, Misses: 0
3f9-> Hits: 106253, Late: 235, Early: 0, Misses: 60
3fb-> Hits: 3, Late: 0, Early: 0, Misses: 0
3fc-> Hits: 56, Late: 0, Early: 0, Misses: 0
3fe-> Hits: 7049, Late: 1, Early: 0, Misses: 0
400-> Hits: 469025, Late: 1, Early: 0, Misses: 0
401-> Hits: 595, Late: 1034, Early: 0, Misses: 0
402-> Hits: 3, Late: 0, Early: 0, Misses: 0
404-> Hits: 7052, Late: 0, Early: 0, Misses: 0
406-> Hits: 4, Late: 0, Early: 0, Misses: 0
407-> Hits: 62821, Late: 1, Early: 0, Misses: 0
408-> Hits: 394418, Late: 0, Early: 0, Misses: 0
409-> Hits: 4, Late: 0, Early: 0, Misses: 0
40c-> Hits: 45, Late: 0, Early: 0, Misses: 0
40e-> Hits: 3, Late: 1, Early: 0, Misses: 0
40f-> Hits: 112775, Late: 21, Early: 0, Misses: 0
410-> Hits: 0, Late: 1, Early: 0, Misses: 0
412-> Hits: 4, Late: 0, Early: 0, Misses: 0
413-> Hits: 7955, Late: 0, Early: 0, Misses: 0
414-> Hits: 52, Late: 0, Early: 0, Misses: 0
417-> Hits: 8, Late: 0, Early: 0, Misses: 0
418-> Hits: 1, Late: 0, Early: 0, Misses: 0
419-> Hits: 1, Late: 0, Early: 0, Misses: 0
41a-> Hits: 3, Late: 0, Early: 0, Misses: 0
41b-> Hits: 106469, Late: 19, Early: 0, Misses: 0
41c-> Hits: 1507, Late: 0, Early: 0, Misses: 0
41e-> Hits: 3, Late: 0, Early: 0, Misses: 0
41f-> Hits: 13, Late: 0, Early: 0, Misses: 0
423-> Hits: 429, Late: 0, Early: 0, Misses: 0
424-> Hits: 92, Late: 1, Early: 0, Misses: 0
425-> Hits: 462294, Late: 3, Early: 0, Misses: 0
426-> Hits: 53, Late: 0, Early: 0, Misses: 0
427-> Hits: 30, Late: 0, Early: 0, Misses: 0
428-> Hits: 80, Late: 0, Early: 0, Misses: 0
42b-> Hits: 104933, Late: 48, Early: 0, Misses: 1918
42c-> Hits: 7, Late: 0, Early: 0, Misses: 0
42d-> Hits: 33008, Late: 4, Early: 0, Misses: 0
42e-> Hits: 52, Late: 0, Early: 0, Misses: 0
42f-> Hits: 84, Late: 1, Early: 0, Misses: 0
430-> Hits: 11, Late: 0, Early: 0, Misses: 0
433-> Hits: 423, Late: 0, Early: 0, Misses: 0
434-> Hits: 40, Late: 0, Early: 0, Misses: 3
435-> Hits: 2, Late: 0, Early: 0, Misses: 0
438-> Hits: 9, Late: 0, Early: 0, Misses: 0
439-> Hits: 0, Late: 0, Early: 0, Misses: 1
43a-> Hits: 0, Late: 1, Early: 0, Misses: 0
43b-> Hits: 106340, Late: 0, Early: 0, Misses: 0
43c-> Hits: 8, Late: 0, Early: 0, Misses: 0
43d-> Hits: 5, Late: 0, Early: 0, Misses: 0
43f-> Hits: 52, Late: 0, Early: 0, Misses: 0
440-> Hits: 0, Late: 1, Early: 0, Misses: 0
441-> Hits: 3, Late: 1, Early: 0, Misses: 0
442-> Hits: 5, Late: 0, Early: 0, Misses: 0
443-> Hits: 111588, Late: 5, Early: 0, Misses: 0
444-> Hits: 92, Late: 1, Early: 0, Misses: 0
445-> Hits: 29, Late: 1, Early: 0, Misses: 0
446-> Hits: 2, Late: 0, Early: 0, Misses: 0
447-> Hits: 49, Late: 3, Early: 0, Misses: 0
448-> Hits: 2, Late: 0, Early: 0, Misses: 0
44a-> Hits: 3, Late: 0, Early: 0, Misses: 0
44b-> Hits: 21, Late: 0, Early: 0, Misses: 0
44c-> Hits: 7, Late: 0, Early: 0, Misses: 0
44d-> Hits: 3, Late: 1, Early: 0, Misses: 0
44e-> Hits: 6215, Late: 3, Early: 0, Misses: 2
44f-> Hits: 5, Late: 0, Early: 0, Misses: 0
451-> Hits: 6977, Late: 0, Early: 0, Misses: 0
452-> Hits: 5, Late: 0, Early: 0, Misses: 0
454-> Hits: 3, Late: 0, Early: 0, Misses: 57
455-> Hits: 46, Late: 0, Early: 0, Misses: 6
456-> Hits: 230, Late: 0, Early: 0, Misses: 0
457-> Hits: 0, Late: 0, Early: 0, Misses: 1
459-> Hits: 106451, Late: 59, Early: 0, Misses: 0
45a-> Hits: 4, Late: 1, Early: 0, Misses: 0
45d-> Hits: 49851, Late: 0, Early: 0, Misses: 0
45e-> Hits: 122, Late: 0, Early: 0, Misses: 0
45f-> Hits: 83, Late: 1, Early: 0, Misses: 0
460-> Hits: 0, Late: 1, Early: 0, Misses: 0
461-> Hits: 262, Late: 0, Early: 0, Misses: 0
462-> Hits: 51, Late: 0, Early: 0, Misses: 1
464-> Hits: 0, Late: 0, Early: 0, Misses: 1
465-> Hits: 106381, Late: 68, Early: 0, Misses: 0
466-> Hits: 6247, Late: 0, Early: 0, Misses: 0
467-> Hits: 81, Late: 1, Early: 0, Misses: 1
468-> Hits: 0, Late: 1, Early: 0, Misses: 0
46b-> Hits: 80, Late: 1, Early: 0, Misses: 0
46c-> Hits: 7428, Late: 0, Early: 0, Misses: 1
46e-> Hits: 3647, Late: 0, Early: 0, Misses: 0
470-> Hits: 104386, Late: 2073, Early: 0, Misses: 0
471-> Hits: 0, Late: 0, Early: 0, Misses: 1
473-> Hits: 88, Late: 2, Early: 0, Misses: 1
474-> Hits: 106, Late: 0, Early: 0, Misses: 0
476-> Hits: 261, Late: 0, Early: 0, Misses: 0
477-> Hits: 1, Late: 1, Early: 0, Misses: 0
47c-> Hits: 7444, Late: 0, Early: 0, Misses: 0
480-> Hits: 173229, Late: 21, Early: 0, Misses: 0
481-> Hits: 1, Late: 0, Early: 0, Misses: 0
484-> Hits: 0, Late: 1, Early: 0, Misses: 0
485-> Hits: 5, Late: 0, Early: 0, Misses: 0
486-> Hits: 83483, Late: 1307, Early: 0, Misses: 0
488-> Hits: 106378, Late: 98, Early: 0, Misses: 0
48a-> Hits: 76, Late: 0, Early: 0, Misses: 0
48b-> Hits: 178, Late: 0, Early: 0, Misses: 0
48d-> Hits: 275, Late: 0, Early: 0, Misses: 1
48e-> Hits: 58, Late: 0, Early: 0, Misses: 0
48f-> Hits: 52105, Late: 22, Early: 0, Misses: 0
491-> Hits: 2, Late: 0, Early: 0, Misses: 0
493-> Hits: 3, Late: 0, Early: 0, Misses: 0
494-> Hits: 60, Late: 0, Early: 0, Misses: 0
495-> Hits: 16, Late: 1, Early: 0, Misses: 0
496-> Hits: 51941, Late: 1374, Early: 0, Misses: 0
497-> Hits: 53, Late: 0, Early: 0, Misses: 0
498-> Hits: 1, Late: 0, Early: 0, Misses: 0
499-> Hits: 1, Late: 1, Early: 0, Misses: 0
49a-> Hits: 75, Late: 1, Early: 0, Misses: 0
49c-> Hits: 60, Late: 0, Early: 0, Misses: 0
49d-> Hits: 101680, Late: 4811, Early: 0, Misses: 275
49f-> Hits: 61, Late: 0, Early: 0, Misses: 0
4a0-> Hits: 7128, Late: 0, Early: 0, Misses: 0
4a1-> Hits: 1, Late: 0, Early: 0, Misses: 0
4a2-> Hits: 106254, Late: 0, Early: 0, Misses: 0
4a5-> Hits: 95, Late: 2, Early: 0, Misses: 0
4a6-> Hits: 7047, Late: 0, Early: 0, Misses: 0
4a8-> Hits: 4, Late: 0, Early: 0, Misses: 0
4a9-> Hits: 1, Late: 0, Early: 0, Misses: 1
4aa-> Hits: 98867, Late: 18, Early: 0, Misses: 2122
4ab-> Hits: 0, Late: 5, Early: 0, Misses: 1
4ac-> Hits: 55, Late: 0, Early: 0, Misses: 0
4ad-> Hits: 6, Late: 0, Early: 0, Misses: 0
4ae-> Hits: 7519, Late: 3, Early: 0, Misses: 387
4b0-> Hits: 1468, Late: 31, Early: 0, Misses: 323
4b1-> Hits: 1, Late: 0, Early: 0, Misses: 0
4b2-> Hits: 34, Late: 0, Early: 0, Misses: 0
4b4-> Hits: 1260, Late: 6, Early: 0, Misses: 2
4b7-> Hits: 1965, Late: 0, Early: 0, Misses: 0
4b8-> Hits: 658, Late: 33, Early: 0, Misses: 0
4b9-> Hits: 52, Late: 0, Early: 0, Misses: 0
4ba-> Hits: 1516, Late: 0, Early: 0, Misses: 0
4bb-> Hits: 22, Late: 0, Early: 0, Misses: 281
4bf-> Hits: 1, Late: 0, Early: 0, Misses: 0
4c0-> Hits: 10400, Late: 4295, Early: 0, Misses: 0
4c2-> Hits: 9101, Late: 0, Early: 0, Misses: 10
4c3-> Hits: 3, Late: 0, Early: 0, Misses: 1
4c4-> Hits: 1819, Late: 0, Early: 0, Misses: 4
4c5-> Hits: 1, Late: 1, Early: 0, Misses: 0
4c6-> Hits: 1329, Late: 0, Early: 0, Misses: 0
4c8-> Hits: 6, Late: 5, Early: 0, Misses: 0
4c9-> Hits: 19, Late: 0, Early: 0, Misses: 285
4ca-> Hits: 6265, Late: 0, Early: 0, Misses: 0
4cb-> Hits: 0, Late: 0, Early: 0, Misses: 1
4cc-> Hits: 1261, Late: 15, Early: 0, Misses: 0
4ce-> Hits: 4, Late: 0, Early: 0, Misses: 0
4cf-> Hits: 747, Late: 5, Early: 0, Misses: 1
4d0-> Hits: 1, Late: 1, Early: 0, Misses: 0
4d1-> Hits: 15, Late: 0, Early: 0, Misses: 280
4d2-> Hits: 58, Late: 0, Early: 0, Misses: 0
4d3-> Hits: 54, Late: 0, Early: 0, Misses: 0
4d4-> Hits: 2, Late: 0, Early: 0, Misses: 0
4d7-> Hits: 4954, Late: 0, Early: 0, Misses: 73
4d9-> Hits: 1, Late: 1, Early: 0, Misses: 0
4da-> Hits: 106251, Late: 960, Early: 0, Misses: 0
4db-> Hits: 2646, Late: 1, Early: 0, Misses: 1
4dc-> Hits: 1, Late: 0, Early: 0, Misses: 0
4dd-> Hits: 0, Late: 1, Early: 0, Misses: 0
4de-> Hits: 52, Late: 0, Early: 0, Misses: 0
4df-> Hits: 229, Late: 0, Early: 0, Misses: 0
4e1-> Hits: 295, Late: 3150, Early: 0, Misses: 0
4e3-> Hits: 3220, Late: 1, Early: 0, Misses: 0
4e4-> Hits: 8, Late: 0, Early: 0, Misses: 0
4e7-> Hits: 104939, Late: 112, Early: 0, Misses: 2078
4e8-> Hits: 6264, Late: 0, Early: 0, Misses: 0
4e9-> Hits: 1, Late: 0, Early: 0, Misses: 0
4ec-> Hits: 59882, Late: 0, Early: 0, Misses: 0
4ee-> Hits: 3, Late: 0, Early: 0, Misses: 0
4ef-> Hits: 6409, Late: 0, Early: 0, Misses: 0
4f0-> Hits: 59, Late: 0, Early: 0, Misses: 0
4f2-> Hits: 8, Late: 0, Early: 0, Misses: 0
4f3-> Hits: 1, Late: 0, Early: 0, Misses: 0
4f4-> Hits: 2, Late: 0, Early: 0, Misses: 0
4f5-> Hits: 1, Late: 1, Early: 0, Misses: 0
4f6-> Hits: 1, Late: 0, Early: 0, Misses: 0
4f7-> Hits: 5704, Late: 0, Early: 0, Misses: 0
4f8-> Hits: 6264, Late: 0, Early: 0, Misses: 0
4fa-> Hits: 751, Late: 10, Early: 0, Misses: 0
4fb-> Hits: 0, Late: 1, Early: 0, Misses: 0
4fc-> Hits: 1, Late: 0, Early: 0, Misses: 0
4fd-> Hits: 81, Late: 0, Early: 0, Misses: 0
4ff-> Hits: 528, Late: 0, Early: 0, Misses: 0
500-> Hits: 3, Late: 1, Early: 0, Misses: 0
501-> Hits: 0, Late: 1, Early: 0, Misses: 0
504-> Hits: 1, Late: 0, Early: 0, Misses: 0
505-> Hits: 6265, Late: 0, Early: 0, Misses: 0
506-> Hits: 5, Late: 0, Early: 0, Misses: 1
507-> Hits: 715, Late: 9, Early: 0, Misses: 0
508-> Hits: 81, Late: 0, Early: 0, Misses: 0
50a-> Hits: 2, Late: 4, Early: 0, Misses: 0
50b-> Hits: 0, Late: 4, Early: 0, Misses: 0
50c-> Hits: 4, Late: 0, Early: 0, Misses: 0
50d-> Hits: 349, Late: 0, Early: 0, Misses: 0
50e-> Hits: 5213, Late: 0, Early: 0, Misses: 0
510-> Hits: 1215, Late: 20, Early: 0, Misses: 0
512-> Hits: 0, Late: 1, Early: 0, Misses: 0
514-> Hits: 1, Late: 1, Early: 0, Misses: 0
516-> Hits: 564, Late: 0, Early: 0, Misses: 0
517-> Hits: 1, Late: 0, Early: 0, Misses: 0
51a-> Hits: 64866, Late: 1, Early: 0, Misses: 0
51b-> Hits: 55, Late: 3, Early: 0, Misses: 0
51c-> Hits: 82, Late: 0, Early: 0, Misses: 0
51e-> Hits: 617, Late: 26, Early: 0, Misses: 0
51f-> Hits: 8, Late: 1, Early: 0, Misses: 0
520-> Hits: 15365, Late: 2, Early: 0, Misses: 0
521-> Hits: 1, Late: 0, Early: 0, Misses: 0
522-> Hits: 1533, Late: 0, Early: 0, Misses: 0
523-> Hits: 751, Late: 8, Early: 0, Misses: 1
524-> Hits: 15993, Late: 1, Early: 0, Misses: 0
525-> Hits: 4, Late: 0, Early: 0, Misses: 0
527-> Hits: 1, Late: 0, Early: 0, Misses: 0
528-> Hits: 81, Late: 1, Early: 0, Misses: 0
529-> Hits: 26, Late: 0, Early: 0, Misses: 1
52b-> Hits: 300, Late: 0, Early: 0, Misses: 0
52c-> Hits: 6264, Late: 0, Early: 0, Misses: 1
52d-> Hits: 0, Late: 5, Early: 0, Misses: 0
52e-> Hits: 1, Late: 0, Early: 0, Misses: 0
530-> Hits: 28575, Late: 58, Early: 0, Misses: 0
532-> Hits: 0, Late: 1, Early: 0, Misses: 3
533-> Hits: 663, Late: 10, Early: 0, Misses: 0
534-> Hits: 198, Late: 105, Early: 0, Misses: 2
535-> Hits: 23655, Late: 298, Early: 0, Misses: 0
537-> Hits: 0, Late: 3, Early: 0, Misses: 0
538-> Hits: 21, Late: 0, Early: 0, Misses: 0
53b-> Hits: 736, Late: 8, Early: 0, Misses: 0
53c-> Hits: 6261, Late: 0, Early: 0, Misses: 0
53d-> Hits: 15754, Late: 16, Early: 0, Misses: 0
53f-> Hits: 3, Late: 0, Early: 0, Misses: 0
540-> Hits: 279, Late: 21, Early: 0, Misses: 1
542-> Hits: 1, Late: 0, Early: 0, Misses: 0
543-> Hits: 12965, Late: 2, Early: 0, Misses: 0
545-> Hits: 3, Late: 0, Early: 0, Misses: 0
546-> Hits: 9, Late: 0, Early: 0, Misses: 0
548-> Hits: 60, Late: 0, Early: 0, Misses: 0
549-> Hits: 5, Late: 0, Early: 0, Misses: 0
54a-> Hits: 6267, Late: 0, Early: 0, Misses: 0
54b-> Hits: 641, Late: 0, Early: 0, Misses: 0
54c-> Hits: 6263, Late: 1, Early: 0, Misses: 3
54d-> Hits: 3, Late: 0, Early: 0, Misses: 0
54e-> Hits: 0, Late: 3, Early: 0, Misses: 0
54f-> Hits: 3, Late: 0, Early: 0, Misses: 0
550-> Hits: 5, Late: 0, Early: 0, Misses: 0
552-> Hits: 6265, Late: 0, Early: 0, Misses: 0
553-> Hits: 652, Late: 29, Early: 0, Misses: 0
554-> Hits: 5, Late: 0, Early: 0, Misses: 0
556-> Hits: 648, Late: 0, Early: 0, Misses: 0
558-> Hits: 743, Late: 10, Early: 0, Misses: 0
559-> Hits: 1, Late: 0, Early: 0, Misses: 0
55a-> Hits: 1566, Late: 0, Early: 0, Misses: 0
55b-> Hits: 6496, Late: 2, Early: 0, Misses: 0
55c-> Hits: 6, Late: 0, Early: 0, Misses: 0
55d-> Hits: 112, Late: 0, Early: 0, Misses: 0
55e-> Hits: 527, Late: 0, Early: 0, Misses: 0
55f-> Hits: 76, Late: 0, Early: 0, Misses: 0
560-> Hits: 231, Late: 1, Early: 0, Misses: 0
562-> Hits: 6265, Late: 0, Early: 0, Misses: 0
564-> Hits: 2, Late: 1, Early: 0, Misses: 0
566-> Hits: 60, Late: 0, Early: 0, Misses: 0
567-> Hits: 0, Late: 1, Early: 0, Misses: 0
568-> Hits: 6264, Late: 0, Early: 0, Misses: 0
569-> Hits: 89, Late: 0, Early: 0, Misses: 0
56a-> Hits: 6265, Late: 1, Early: 0, Misses: 0
56c-> Hits: 4, Late: 0, Early: 0, Misses: 0
56e-> Hits: 1620, Late: 0, Early: 0, Misses: 0
56f-> Hits: 0, Late: 1, Early: 0, Misses: 0
570-> Hits: 3845, Late: 0, Early: 0, Misses: 0
571-> Hits: 140, Late: 0, Early: 0, Misses: 0
572-> Hits: 3, Late: 0, Early: 0, Misses: 0
573-> Hits: 5, Late: 0, Early: 0, Misses: 0
574-> Hits: 36, Late: 0, Early: 0, Misses: 3
575-> Hits: 3, Late: 0, Early: 0, Misses: 0
577-> Hits: 464, Late: 0, Early: 0, Misses: 0
578-> Hits: 12, Late: 0, Early: 0, Misses: 0
57a-> Hits: 3, Late: 1, Early: 0, Misses: 0
57c-> Hits: 17, Late: 0, Early: 0, Misses: 3
57d-> Hits: 21, Late: 0, Early: 0, Misses: 3
57e-> Hits: 229, Late: 0, Early: 0, Misses: 0
57f-> Hits: 80, Late: 1, Early: 0, Misses: 0
580-> Hits: 225, Late: 0, Early: 0, Misses: 0
581-> Hits: 540, Late: 0, Early: 0, Misses: 0
582-> Hits: 3, Late: 0, Early: 0, Misses: 0
583-> Hits: 24, Late: 0, Early: 0, Misses: 0
584-> Hits: 17, Late: 0, Early: 0, Misses: 0
585-> Hits: 123, Late: 0, Early: 0, Misses: 0
586-> Hits: 261, Late: 0, Early: 0, Misses: 0
587-> Hits: 0, Late: 1, Early: 0, Misses: 0
588-> Hits: 993, Late: 0, Early: 0, Misses: 0
589-> Hits: 4, Late: 0, Early: 0, Misses: 0
58b-> Hits: 78, Late: 0, Early: 0, Misses: 0
58d-> Hits: 313, Late: 1, Early: 0, Misses: 0
58e-> Hits: 49, Late: 0, Early: 0, Misses: 0
590-> Hits: 4644, Late: 1, Early: 0, Misses: 0
592-> Hits: 0, Late: 1, Early: 0, Misses: 0
593-> Hits: 1, Late: 0, Early: 0, Misses: 0
595-> Hits: 208, Late: 0, Early: 0, Misses: 0
596-> Hits: 38, Late: 0, Early: 0, Misses: 0
597-> Hits: 1, Late: 0, Early: 0, Misses: 0
59b-> Hits: 167, Late: 0, Early: 0, Misses: 0
59c-> Hits: 270, Late: 0, Early: 0, Misses: 0
59d-> Hits: 314, Late: 0, Early: 0, Misses: 4
5a0-> Hits: 1619, Late: 0, Early: 0, Misses: 0
5a1-> Hits: 10, Late: 0, Early: 0, Misses: 0
5a2-> Hits: 1, Late: 0, Early: 0, Misses: 0
5a3-> Hits: 80, Late: 2, Early: 0, Misses: 0
5a4-> Hits: 1774, Late: 3, Early: 0, Misses: 104
5a5-> Hits: 3, Late: 0, Early: 0, Misses: 0
5a7-> Hits: 4, Late: 0, Early: 0, Misses: 0
5a9-> Hits: 46, Late: 0, Early: 0, Misses: 0
5aa-> Hits: 1, Late: 1, Early: 0, Misses: 0
5ad-> Hits: 10, Late: 0, Early: 0, Misses: 0
5ae-> Hits: 35, Late: 0, Early: 0, Misses: 0
5af-> Hits: 0, Late: 1, Early: 0, Misses: 0
5b1-> Hits: 81, Late: 0, Early: 0, Misses: 0
5b2-> Hits: 1, Late: 4, Early: 0, Misses: 0
5b3-> Hits: 6, Late: 0, Early: 0, Misses: 0
5b4-> Hits: 3, Late: 0, Early: 0, Misses: 0
5b5-> Hits: 112, Late: 0, Early: 0, Misses: 1
5b6-> Hits: 51, Late: 0, Early: 0, Misses: 0
5b7-> Hits: 3, Late: 0, Early: 0, Misses: 0
5b8-> Hits: 47, Late: 1, Early: 0, Misses: 0
5b9-> Hits: 4, Late: 0, Early: 0, Misses: 0
5ba-> Hits: 2, Late: 2, Early: 0, Misses: 0
5bc-> Hits: 6264, Late: 1, Early: 0, Misses: 2
5bd-> Hits: 64, Late: 0, Early: 0, Misses: 0
5be-> Hits: 1, Late: 0, Early: 0, Misses: 0
5c0-> Hits: 135, Late: 0, Early: 0, Misses: 0
5c4-> Hits: 787, Late: 0, Early: 0, Misses: 0
5c5-> Hits: 228, Late: 2, Early: 0, Misses: 2
5c7-> Hits: 5, Late: 0, Early: 0, Misses: 0
5c8-> Hits: 1617, Late: 0, Early: 0, Misses: 0
5c9-> Hits: 175, Late: 0, Early: 0, Misses: 0
5ca-> Hits: 4, Late: 0, Early: 0, Misses: 0
5cb-> Hits: 1, Late: 0, Early: 0, Misses: 0
5cc-> Hits: 8, Late: 0, Early: 0, Misses: 0
5cd-> Hits: 133, Late: 0, Early: 0, Misses: 0
5ce-> Hits: 352, Late: 0, Early: 0, Misses: 0
5cf-> Hits: 5, Late: 0, Early: 0, Misses: 0
5d0-> Hits: 199, Late: 1, Early: 0, Misses: 0
5d1-> Hits: 1, Late: 0, Early: 0, Misses: 0
5d2-> Hits: 1, Late: 0, Early: 0, Misses: 0
5d4-> Hits: 245, Late: 0, Early: 0, Misses: 0
5d5-> Hits: 120, Late: 0, Early: 0, Misses: 0
5d7-> Hits: 3, Late: 0, Early: 0, Misses: 0
5d8-> Hits: 7, Late: 0, Early: 0, Misses: 0
5da-> Hits: 60, Late: 0, Early: 0, Misses: 0
5db-> Hits: 0, Late: 0, Early: 0, Misses: 1
5dc-> Hits: 27, Late: 0, Early: 0, Misses: 0
5dd-> Hits: 232, Late: 0, Early: 0, Misses: 0
5df-> Hits: 3, Late: 0, Early: 0, Misses: 0
5e0-> Hits: 22195, Late: 52, Early: 0, Misses: 0
5e4-> Hits: 532, Late: 1, Early: 0, Misses: 0
5e5-> Hits: 19563, Late: 326, Early: 0, Misses: 0
5e7-> Hits: 3, Late: 0, Early: 0, Misses: 0
5e8-> Hits: 0, Late: 1, Early: 0, Misses: 0
5ea-> Hits: 11, Late: 0, Early: 0, Misses: 0
5eb-> Hits: 3841, Late: 4, Early: 0, Misses: 0
5ec-> Hits: 3, Late: 0, Early: 0, Misses: 0
5ed-> Hits: 18074, Late: 273, Early: 0, Misses: 0
5f0-> Hits: 0, Late: 2, Early: 0, Misses: 0
5f1-> Hits: 5, Late: 0, Early: 0, Misses: 0
5f2-> Hits: 17605, Late: 8, Early: 0, Misses: 0
5f3-> Hits: 529, Late: 0, Early: 0, Misses: 0
5f4-> Hits: 82, Late: 0, Early: 0, Misses: 0
5f5-> Hits: 3345, Late: 79, Early: 0, Misses: 0
5f7-> Hits: 110, Late: 0, Early: 0, Misses: 0
5f8-> Hits: 3429, Late: 0, Early: 0, Misses: 0
5f9-> Hits: 177, Late: 0, Early: 0, Misses: 0
5fa-> Hits: 1, Late: 0, Early: 0, Misses: 0
5fb-> Hits: 1318, Late: 1, Early: 0, Misses: 0
5fc-> Hits: 3, Late: 0, Early: 0, Misses: 0
5fd-> Hits: 18043, Late: 6, Early: 0, Misses: 0
5fe-> Hits: 9, Late: 4, Early: 0, Misses: 0
5ff-> Hits: 0, Late: 1, Early: 0, Misses: 0
600-> Hits: 1, Late: 0, Early: 0, Misses: 0
601-> Hits: 1, Late: 0, Early: 0, Misses: 0
602-> Hits: 4, Late: 0, Early: 0, Misses: 0
603-> Hits: 1236, Late: 0, Early: 0, Misses: 2
604-> Hits: 3, Late: 0, Early: 0, Misses: 0
605-> Hits: 0, Late: 1, Early: 0, Misses: 0
606-> Hits: 635, Late: 1, Early: 0, Misses: 0
608-> Hits: 56, Late: 2, Early: 0, Misses: 0
609-> Hits: 1, Late: 2, Early: 0, Misses: 0
60b-> Hits: 496, Late: 0, Early: 0, Misses: 0
60c-> Hits: 714, Late: 0, Early: 0, Misses: 0
60d-> Hits: 2036, Late: 0, Early: 0, Misses: 0
60e-> Hits: 2, Late: 0, Early: 0, Misses: 1
610-> Hits: 209, Late: 0, Early: 0, Misses: 0
612-> Hits: 1, Late: 0, Early: 0, Misses: 0
613-> Hits: 0, Late: 1, Early: 0, Misses: 0
614-> Hits: 1, Late: 1, Early: 0, Misses: 2
615-> Hits: 2653, Late: 81, Early: 0, Misses: 0
616-> Hits: 1, Late: 0, Early: 0, Misses: 0
617-> Hits: 1616, Late: 0, Early: 0, Misses: 1
618-> Hits: 1, Late: 0, Early: 0, Misses: 4
619-> Hits: 1, Late: 0, Early: 0, Misses: 0
61a-> Hits: 1, Late: 0, Early: 0, Misses: 0
61b-> Hits: 978, Late: 31, Early: 0, Misses: 0
61c-> Hits: 3, Late: 0, Early: 0, Misses: 0
61d-> Hits: 261, Late: 0, Early: 0, Misses: 0
61f-> Hits: 0, Late: 4, Early: 0, Misses: 0
620-> Hits: 1998, Late: 3579, Early: 0, Misses: 0
622-> Hits: 0, Late: 0, Early: 0, Misses: 1
623-> Hits: 0, Late: 0, Early: 0, Misses: 2
624-> Hits: 1671, Late: 0, Early: 0, Misses: 0
625-> Hits: 713, Late: 21, Early: 0, Misses: 0
626-> Hits: 0, Late: 1, Early: 0, Misses: 0
627-> Hits: 1, Late: 1, Early: 0, Misses: 0
628-> Hits: 1, Late: 0, Early: 0, Misses: 0
629-> Hits: 1647, Late: 0, Early: 0, Misses: 0
62a-> Hits: 424, Late: 44, Early: 0, Misses: 0
62b-> Hits: 4052, Late: 0, Early: 0, Misses: 0
62c-> Hits: 3, Late: 0, Early: 0, Misses: 2
62d-> Hits: 1, Late: 0, Early: 0, Misses: 0
62e-> Hits: 0, Late: 0, Early: 0, Misses: 1
62f-> Hits: 846, Late: 0, Early: 0, Misses: 0
630-> Hits: 203, Late: 1477, Early: 0, Misses: 0
632-> Hits: 0, Late: 1, Early: 0, Misses: 0
633-> Hits: 3024, Late: 1349, Early: 0, Misses: 0
634-> Hits: 3133, Late: 3228, Early: 0, Misses: 0
635-> Hits: 2, Late: 0, Early: 0, Misses: 0
638-> Hits: 0, Late: 2, Early: 0, Misses: 2
639-> Hits: 487, Late: 0, Early: 0, Misses: 0
63a-> Hits: 2, Late: 0, Early: 0, Misses: 0
63b-> Hits: 648, Late: 1, Early: 0, Misses: 0
63c-> Hits: 4, Late: 0, Early: 0, Misses: 0
63d-> Hits: 1, Late: 0, Early: 0, Misses: 0
63e-> Hits: 3, Late: 0, Early: 0, Misses: 0
640-> Hits: 8695, Late: 0, Early: 0, Misses: 0
641-> Hits: 3807, Late: 30, Early: 0, Misses: 0
644-> Hits: 3, Late: 1, Early: 0, Misses: 0
645-> Hits: 4311, Late: 0, Early: 0, Misses: 0
647-> Hits: 3654, Late: 0, Early: 0, Misses: 0
648-> Hits: 1648, Late: 0, Early: 0, Misses: 0
649-> Hits: 1, Late: 0, Early: 0, Misses: 0
64b-> Hits: 2365, Late: 0, Early: 0, Misses: 0
64d-> Hits: 7049, Late: 0, Early: 0, Misses: 0
650-> Hits: 0, Late: 1, Early: 0, Misses: 0
651-> Hits: 1644, Late: 0, Early: 0, Misses: 0
653-> Hits: 9336, Late: 30, Early: 0, Misses: 0
654-> Hits: 7050, Late: 0, Early: 0, Misses: 0
655-> Hits: 1, Late: 0, Early: 0, Misses: 0
656-> Hits: 0, Late: 0, Early: 0, Misses: 3
658-> Hits: 9, Late: 0, Early: 0, Misses: 0
659-> Hits: 2640, Late: 347, Early: 0, Misses: 0
65a-> Hits: 208, Late: 0, Early: 0, Misses: 0
65b-> Hits: 14, Late: 3, Early: 0, Misses: 0
65f-> Hits: 957, Late: 0, Early: 0, Misses: 0
660-> Hits: 945, Late: 1, Early: 0, Misses: 0
661-> Hits: 58, Late: 0, Early: 0, Misses: 0
662-> Hits: 54, Late: 0, Early: 0, Misses: 0
665-> Hits: 13, Late: 0, Early: 0, Misses: 0
666-> Hits: 1, Late: 0, Early: 0, Misses: 0
668-> Hits: 3722, Late: 40, Early: 0, Misses: 0
669-> Hits: 5, Late: 0, Early: 0, Misses: 0
66a-> Hits: 1, Late: 0, Early: 0, Misses: 0
66b-> Hits: 669, Late: 0, Early: 0, Misses: 0
66c-> Hits: 1, Late: 0, Early: 0, Misses: 0
66e-> Hits: 0, Late: 1, Early: 0, Misses: 0
66f-> Hits: 24, Late: 0, Early: 0, Misses: 0
670-> Hits: 2393, Late: 1, Early: 0, Misses: 24
672-> Hits: 1308, Late: 0, Early: 0, Misses: 0
673-> Hits: 60, Late: 0, Early: 0, Misses: 0
674-> Hits: 3, Late: 0, Early: 0, Misses: 0
675-> Hits: 2229, Late: 29, Early: 0, Misses: 0
677-> Hits: 6172, Late: 0, Early: 0, Misses: 0
678-> Hits: 406, Late: 0, Early: 0, Misses: 0
679-> Hits: 0, Late: 2, Early: 0, Misses: 0
67a-> Hits: 4843, Late: 115, Early: 0, Misses: 0
67c-> Hits: 3, Late: 0, Early: 0, Misses: 0
67d-> Hits: 749, Late: 32, Early: 0, Misses: 0
67e-> Hits: 1, Late: 0, Early: 0, Misses: 0
67f-> Hits: 1586, Late: 0, Early: 0, Misses: 0
680-> Hits: 1309, Late: 371, Early: 0, Misses: 0
681-> Hits: 1, Late: 0, Early: 0, Misses: 0
682-> Hits: 4, Late: 0, Early: 0, Misses: 0
683-> Hits: 6152, Late: 0, Early: 0, Misses: 0
684-> Hits: 3, Late: 2, Early: 0, Misses: 0
685-> Hits: 27, Late: 0, Early: 0, Misses: 0
686-> Hits: 1, Late: 2, Early: 0, Misses: 0
687-> Hits: 1, Late: 0, Early: 0, Misses: 0
688-> Hits: 428, Late: 0, Early: 0, Misses: 0
689-> Hits: 1648, Late: 0, Early: 0, Misses: 0
68a-> Hits: 863, Late: 1, Early: 0, Misses: 1
68b-> Hits: 1, Late: 0, Early: 0, Misses: 0
68c-> Hits: 1, Late: 0, Early: 0, Misses: 0
68d-> Hits: 2, Late: 0, Early: 0, Misses: 0
68f-> Hits: 2904, Late: 1491, Early: 0, Misses: 0
690-> Hits: 18742, Late: 1, Early: 0, Misses: 0
691-> Hits: 0, Late: 3, Early: 0, Misses: 1
693-> Hits: 767, Late: 0, Early: 0, Misses: 0
694-> Hits: 3, Late: 0, Early: 0, Misses: 0
695-> Hits: 18175, Late: 3, Early: 0, Misses: 0
697-> Hits: 739, Late: 27, Early: 0, Misses: 0
698-> Hits: 56, Late: 0, Early: 0, Misses: 0
69a-> Hits: 6666, Late: 0, Early: 0, Misses: 0
69c-> Hits: 5, Late: 0, Early: 0, Misses: 0
69e-> Hits: 1, Late: 0, Early: 0, Misses: 0
6a0-> Hits: 1341, Late: 6, Early: 0, Misses: 1
6a1-> Hits: 18641, Late: 3, Early: 0, Misses: 93
6a2-> Hits: 4, Late: 0, Early: 0, Misses: 0
6a4-> Hits: 665, Late: 6, Early: 0, Misses: 0
6a5-> Hits: 0, Late: 1, Early: 0, Misses: 0
6a7-> Hits: 8138, Late: 0, Early: 0, Misses: 0
6a8-> Hits: 1038, Late: 34, Early: 0, Misses: 0
6a9-> Hits: 0, Late: 1, Early: 0, Misses: 0
6ab-> Hits: 8, Late: 0, Early: 0, Misses: 0
6ac-> Hits: 263, Late: 0, Early: 0, Misses: 0
6ad-> Hits: 353, Late: 17, Early: 0, Misses: 0
6b0-> Hits: 279, Late: 44, Early: 0, Misses: 0
6b1-> Hits: 4, Late: 0, Early: 0, Misses: 0
6b4-> Hits: 5, Late: 0, Early: 0, Misses: 0
6b5-> Hits: 739, Late: 17, Early: 0, Misses: 0
6b6-> Hits: 0, Late: 2, Early: 0, Misses: 0
6b7-> Hits: 303, Late: 4, Early: 0, Misses: 0
6b8-> Hits: 874, Late: 0, Early: 0, Misses: 0
6b9-> Hits: 263, Late: 0, Early: 0, Misses: 1
6ba-> Hits: 18737, Late: 0, Early: 0, Misses: 0
6bc-> Hits: 287, Late: 17, Early: 0, Misses: 0
6bd-> Hits: 945, Late: 0, Early: 0, Misses: 0
6be-> Hits: 265, Late: 0, Early: 0, Misses: 0
6bf-> Hits: 1560, Late: 0, Early: 0, Misses: 0
6c1-> Hits: 265, Late: 1, Early: 0, Misses: 0
6c2-> Hits: 5, Late: 0, Early: 0, Misses: 0
6c3-> Hits: 287, Late: 5, Early: 0, Misses: 0
6c4-> Hits: 0, Late: 1, Early: 0, Misses: 0
6c5-> Hits: 2662, Late: 3, Early: 0, Misses: 2
6c6-> Hits: 895, Late: 0, Early: 0, Misses: 33
6ca-> Hits: 878, Late: 0, Early: 0, Misses: 0
6cc-> Hits: 5, Late: 0, Early: 0, Misses: 0
6cd-> Hits: 0, Late: 3, Early: 0, Misses: 1
6ce-> Hits: 3, Late: 0, Early: 0, Misses: 0
6cf-> Hits: 2, Late: 0, Early: 0, Misses: 0
6d0-> Hits: 5, Late: 1, Early: 0, Misses: 0
6d1-> Hits: 3, Late: 0, Early: 0, Misses: 0
6d2-> Hits: 5907, Late: 1, Early: 0, Misses: 0
6d4-> Hits: 44, Late: 0, Early: 0, Misses: 1
6d6-> Hits: 1115, Late: 0, Early: 0, Misses: 14
6d8-> Hits: 3421, Late: 1, Early: 0, Misses: 0
6d9-> Hits: 79, Late: 0, Early: 0, Misses: 0
6da-> Hits: 5, Late: 1, Early: 0, Misses: 0
6db-> Hits: 242, Late: 1, Early: 0, Misses: 0
6dd-> Hits: 0, Late: 4, Early: 0, Misses: 0
6de-> Hits: 123, Late: 0, Early: 0, Misses: 0
6e0-> Hits: 75632, Late: 5119, Early: 0, Misses: 0
6e2-> Hits: 60, Late: 0, Early: 0, Misses: 0
6e3-> Hits: 765, Late: 0, Early: 0, Misses: 0
6e4-> Hits: 77358, Late: 2698, Early: 0, Misses: 319
6e5-> Hits: 0, Late: 3, Early: 0, Misses: 1
6e6-> Hits: 7060, Late: 0, Early: 0, Misses: 0
6e9-> Hits: 3, Late: 0, Early: 0, Misses: 0
6eb-> Hits: 2, Late: 0, Early: 0, Misses: 0
6ec-> Hits: 10213, Late: 108, Early: 0, Misses: 0
6ed-> Hits: 57, Late: 0, Early: 0, Misses: 0
6ee-> Hits: 60, Late: 0, Early: 0, Misses: 0
6f0-> Hits: 22899, Late: 1461, Early: 0, Misses: 0
6f1-> Hits: 54, Late: 5, Early: 0, Misses: 0
6f4-> Hits: 1931, Late: 0, Early: 0, Misses: 0
6f5-> Hits: 6, Late: 0, Early: 0, Misses: 0
6f7-> Hits: 5607, Late: 0, Early: 0, Misses: 0
6f8-> Hits: 0, Late: 1, Early: 0, Misses: 0
6fa-> Hits: 29, Late: 0, Early: 0, Misses: 0
6fb-> Hits: 152, Late: 0, Early: 0, Misses: 0
6fd-> Hits: 54, Late: 0, Early: 0, Misses: 0
6fe-> Hits: 0, Late: 1, Early: 0, Misses: 0
6ff-> Hits: 789, Late: 9, Early: 0, Misses: 0
700-> Hits: 57, Late: 1, Early: 0, Misses: 0
703-> Hits: 7, Late: 0, Early: 0, Misses: 0
704-> Hits: 138, Late: 1, Early: 0, Misses: 0
706-> Hits: 2, Late: 0, Early: 0, Misses: 0
707-> Hits: 4, Late: 0, Early: 0, Misses: 0
708-> Hits: 536, Late: 0, Early: 0, Misses: 285
709-> Hits: 1784, Late: 0, Early: 0, Misses: 1
70a-> Hits: 18767, Late: 3, Early: 0, Misses: 0
70c-> Hits: 18, Late: 0, Early: 0, Misses: 0
70d-> Hits: 1, Late: 0, Early: 0, Misses: 0
70e-> Hits: 5, Late: 1, Early: 0, Misses: 0
70f-> Hits: 59, Late: 0, Early: 0, Misses: 0
710-> Hits: 18965, Late: 3, Early: 0, Misses: 0
711-> Hits: 14, Late: 3, Early: 0, Misses: 0
715-> Hits: 6504, Late: 5, Early: 0, Misses: 0
716-> Hits: 230, Late: 0, Early: 0, Misses: 0
717-> Hits: 1, Late: 0, Early: 0, Misses: 0
719-> Hits: 1, Late: 0, Early: 0, Misses: 0
71c-> Hits: 5093, Late: 1, Early: 0, Misses: 0
71d-> Hits: 294, Late: 0, Early: 0, Misses: 0
71e-> Hits: 1, Late: 0, Early: 0, Misses: 0
71f-> Hits: 18769, Late: 0, Early: 0, Misses: 0
720-> Hits: 15, Late: 3, Early: 0, Misses: 0
721-> Hits: 18, Late: 1, Early: 0, Misses: 2
723-> Hits: 1, Late: 0, Early: 0, Misses: 0
724-> Hits: 72, Late: 0, Early: 0, Misses: 0
725-> Hits: 18847, Late: 9, Early: 0, Misses: 0
726-> Hits: 6480, Late: 0, Early: 0, Misses: 0
727-> Hits: 5, Late: 0, Early: 0, Misses: 0
728-> Hits: 3304, Late: 0, Early: 0, Misses: 0
729-> Hits: 24, Late: 0, Early: 0, Misses: 1
72c-> Hits: 5, Late: 0, Early: 0, Misses: 0
72e-> Hits: 1, Late: 0, Early: 0, Misses: 0
72f-> Hits: 24, Late: 1, Early: 0, Misses: 0
730-> Hits: 14646, Late: 0, Early: 0, Misses: 0
731-> Hits: 2, Late: 0, Early: 0, Misses: 0
733-> Hits: 6481, Late: 0, Early: 0, Misses: 0
734-> Hits: 6585, Late: 0, Early: 0, Misses: 0
736-> Hits: 1, Late: 0, Early: 0, Misses: 0
737-> Hits: 1, Late: 0, Early: 0, Misses: 0
738-> Hits: 18182, Late: 4, Early: 0, Misses: 317
739-> Hits: 29, Late: 0, Early: 0, Misses: 0
73b-> Hits: 1, Late: 0, Early: 0, Misses: 0
73c-> Hits: 5799, Late: 0, Early: 0, Misses: 1
73d-> Hits: 4, Late: 0, Early: 0, Misses: 0
73f-> Hits: 1, Late: 0, Early: 0, Misses: 1
740-> Hits: 5775, Late: 0, Early: 0, Misses: 0
741-> Hits: 2, Late: 0, Early: 0, Misses: 0
742-> Hits: 6480, Late: 0, Early: 0, Misses: 3
743-> Hits: 3, Late: 0, Early: 0, Misses: 0
744-> Hits: 1, Late: 0, Early: 0, Misses: 0
745-> Hits: 1, Late: 0, Early: 0, Misses: 1
746-> Hits: 473, Late: 0, Early: 0, Misses: 0
748-> Hits: 45, Late: 0, Early: 0, Misses: 154
749-> Hits: 31, Late: 0, Early: 0, Misses: 0
74a-> Hits: 774, Late: 0, Early: 0, Misses: 0
74b-> Hits: 24, Late: 5, Early: 0, Misses: 0
74c-> Hits: 4, Late: 0, Early: 0, Misses: 0
74e-> Hits: 1, Late: 0, Early: 0, Misses: 0
74f-> Hits: 858, Late: 10, Early: 0, Misses: 0
750-> Hits: 5424, Late: 318, Early: 0, Misses: 0
751-> Hits: 2, Late: 0, Early: 0, Misses: 0
752-> Hits: 18377, Late: 0, Early: 0, Misses: 3
753-> Hits: 5329, Late: 4, Early: 0, Misses: 0
754-> Hits: 12053, Late: 114, Early: 0, Misses: 0
756-> Hits: 2, Late: 0, Early: 0, Misses: 0
757-> Hits: 18, Late: 0, Early: 0, Misses: 285
758-> Hits: 1, Late: 0, Early: 0, Misses: 0
759-> Hits: 846, Late: 0, Early: 0, Misses: 25
75c-> Hits: 5769, Late: 0, Early: 0, Misses: 0
75f-> Hits: 2, Late: 0, Early: 0, Misses: 0
761-> Hits: 316, Late: 0, Early: 0, Misses: 0
763-> Hits: 278, Late: 0, Early: 0, Misses: 0
764-> Hits: 14447, Late: 3, Early: 0, Misses: 1
765-> Hits: 4, Late: 0, Early: 0, Misses: 0
766-> Hits: 7, Late: 1, Early: 0, Misses: 0
769-> Hits: 748, Late: 7, Early: 0, Misses: 0
76a-> Hits: 1, Late: 0, Early: 0, Misses: 0
76b-> Hits: 5, Late: 0, Early: 0, Misses: 0
76c-> Hits: 18449, Late: 6, Early: 0, Misses: 0
76e-> Hits: 11465, Late: 1, Early: 0, Misses: 153
76f-> Hits: 1, Late: 2, Early: 0, Misses: 0
770-> Hits: 3, Late: 0, Early: 0, Misses: 0
771-> Hits: 1349, Late: 0, Early: 0, Misses: 6
772-> Hits: 1, Late: 1, Early: 0, Misses: 0
773-> Hits: 10, Late: 0, Early: 0, Misses: 0
774-> Hits: 8, Late: 1, Early: 0, Misses: 1
776-> Hits: 7, Late: 0, Early: 0, Misses: 0
779-> Hits: 17795, Late: 3, Early: 0, Misses: 0
77a-> Hits: 5760, Late: 0, Early: 0, Misses: 0
77b-> Hits: 0, Late: 6, Early: 0, Misses: 0
77c-> Hits: 193, Late: 4, Early: 0, Misses: 1
77e-> Hits: 868, Late: 0, Early: 0, Misses: 1
780-> Hits: 4, Late: 0, Early: 0, Misses: 0
781-> Hits: 17, Late: 0, Early: 0, Misses: 153
783-> Hits: 23680, Late: 324, Early: 0, Misses: 0
784-> Hits: 6480, Late: 1, Early: 0, Misses: 0
785-> Hits: 7, Late: 0, Early: 0, Misses: 0
786-> Hits: 2, Late: 1, Early: 0, Misses: 0
787-> Hits: 1, Late: 0, Early: 0, Misses: 0
789-> Hits: 2, Late: 0, Early: 0, Misses: 0
78a-> Hits: 3, Late: 0, Early: 0, Misses: 0
78b-> Hits: 1, Late: 0, Early: 0, Misses: 0
78c-> Hits: 56, Late: 0, Early: 0, Misses: 0
78d-> Hits: 20, Late: 0, Early: 0, Misses: 0
78e-> Hits: 4, Late: 0, Early: 0, Misses: 0
790-> Hits: 46, Late: 0, Early: 0, Misses: 0
791-> Hits: 1, Late: 0, Early: 0, Misses: 0
792-> Hits: 2511, Late: 0, Early: 0, Misses: 0
793-> Hits: 5760, Late: 0, Early: 0, Misses: 0
794-> Hits: 6202, Late: 0, Early: 0, Misses: 0
795-> Hits: 0, Late: 0, Early: 0, Misses: 1
796-> Hits: 1, Late: 0, Early: 0, Misses: 0
798-> Hits: 122, Late: 3, Early: 0, Misses: 0
79a-> Hits: 18250, Late: 2, Early: 0, Misses: 0
79b-> Hits: 268, Late: 0, Early: 0, Misses: 0
79c-> Hits: 1, Late: 0, Early: 0, Misses: 0
79d-> Hits: 1, Late: 4, Early: 0, Misses: 0
79f-> Hits: 232, Late: 0, Early: 0, Misses: 0
7a0-> Hits: 62, Late: 0, Early: 0, Misses: 0
7a1-> Hits: 1, Late: 3, Early: 0, Misses: 1
7a2-> Hits: 240, Late: 0, Early: 0, Misses: 0
7a3-> Hits: 427, Late: 3, Early: 0, Misses: 0
7a5-> Hits: 33, Late: 0, Early: 0, Misses: 0
7a6-> Hits: 0, Late: 1, Early: 0, Misses: 2
7a7-> Hits: 25, Late: 0, Early: 0, Misses: 0
7a8-> Hits: 52, Late: 0, Early: 0, Misses: 1
7a9-> Hits: 1, Late: 0, Early: 0, Misses: 0
7ac-> Hits: 5, Late: 0, Early: 0, Misses: 0
7ad-> Hits: 17383, Late: 2, Early: 0, Misses: 409
7af-> Hits: 522, Late: 1, Early: 0, Misses: 0
7b0-> Hits: 396970, Late: 4075, Early: 0, Misses: 0
7b1-> Hits: 1, Late: 0, Early: 0, Misses: 0
7b2-> Hits: 0, Late: 1, Early: 0, Misses: 1
7b3-> Hits: 8, Late: 0, Early: 0, Misses: 0
7b4-> Hits: 1536, Late: 0, Early: 0, Misses: 1
7b5-> Hits: 22, Late: 0, Early: 0, Misses: 0
7b6-> Hits: 397392, Late: 601, Early: 0, Misses: 0
7b7-> Hits: 522, Late: 0, Early: 0, Misses: 0
7b8-> Hits: 52, Late: 0, Early: 0, Misses: 0
7b9-> Hits: 1, Late: 1, Early: 0, Misses: 0
7bc-> Hits: 399533, Late: 872, Early: 0, Misses: 0
7bd-> Hits: 127, Late: 0, Early: 0, Misses: 0
[...]
ddc-> Hits: 4, Late: 0, Early: 0, Misses: 0
ddd-> Hits: 6, Late: 0, Early: 0, Misses: 0
dde-> Hits: 3, Late: 0, Early: 0, Misses: 0
de0-> Hits: 3, Late: 4, Early: 0, Misses: 5
de1-> Hits: 1, Late: 0, Early: 0, Misses: 0
de2-> Hits: 194, Late: 0, Early: 0, Misses: 2
de5-> Hits: 1612, Late: 0, Early: 0, Misses: 0
de6-> Hits: 5, Late: 0, Early: 0, Misses: 0
de8-> Hits: 4386, Late: 0, Early: 0, Misses: 1
dea-> Hits: 1622, Late: 0, Early: 0, Misses: 0
deb-> Hits: 26, Late: 0, Early: 0, Misses: 1
dec-> Hits: 28, Late: 0, Early: 0, Misses: 0
ded-> Hits: 240, Late: 0, Early: 0, Misses: 0
def-> Hits: 10, Late: 0, Early: 0, Misses: 0
df0-> Hits: 581, Late: 7, Early: 0, Misses: 1
df2-> Hits: 1, Late: 0, Early: 0, Misses: 0
df3-> Hits: 1, Late: 0, Early: 0, Misses: 0
df4-> Hits: 5958, Late: 0, Early: 0, Misses: 0
df5-> Hits: 168, Late: 9, Early: 0, Misses: 1
df6-> Hits: 0, Late: 1, Early: 0, Misses: 0
df7-> Hits: 5, Late: 0, Early: 0, Misses: 0
df8-> Hits: 3, Late: 0, Early: 0, Misses: 0
df9-> Hits: 1651, Late: 0, Early: 0, Misses: 0
dfa-> Hits: 515, Late: 5, Early: 0, Misses: 1
dfc-> Hits: 3613, Late: 0, Early: 0, Misses: 0
dfd-> Hits: 14, Late: 0, Early: 0, Misses: 0
dfe-> Hits: 130, Late: 2, Early: 0, Misses: 0
dff-> Hits: 5, Late: 0, Early: 0, Misses: 0
e00-> Hits: 35, Late: 0, Early: 0, Misses: 0
e01-> Hits: 18, Late: 0, Early: 0, Misses: 0
e02-> Hits: 3, Late: 0, Early: 0, Misses: 1
e04-> Hits: 27, Late: 0, Early: 0, Misses: 0
e05-> Hits: 19378, Late: 245, Early: 0, Misses: 0
e06-> Hits: 0, Late: 1, Early: 0, Misses: 0
e07-> Hits: 3, Late: 3, Early: 0, Misses: 2
e08-> Hits: 2, Late: 0, Early: 0, Misses: 0
e0b-> Hits: 475, Late: 0, Early: 0, Misses: 0
e0c-> Hits: 20168, Late: 22, Early: 0, Misses: 0
e0d-> Hits: 239, Late: 0, Early: 0, Misses: 0
e0e-> Hits: 24, Late: 8, Early: 0, Misses: 2
e0f-> Hits: 33, Late: 0, Early: 0, Misses: 0
e10-> Hits: 79, Late: 3, Early: 0, Misses: 0
e13-> Hits: 8, Late: 0, Early: 0, Misses: 0
e14-> Hits: 27, Late: 0, Early: 0, Misses: 0
e15-> Hits: 1, Late: 0, Early: 0, Misses: 0
e16-> Hits: 17912, Late: 1167, Early: 0, Misses: 0
e17-> Hits: 9, Late: 0, Early: 0, Misses: 0
e18-> Hits: 34, Late: 0, Early: 0, Misses: 0
e19-> Hits: 0, Late: 1, Early: 0, Misses: 0
e1a-> Hits: 29, Late: 0, Early: 0, Misses: 0
e1b-> Hits: 1268, Late: 13, Early: 0, Misses: 2
e1d-> Hits: 20727, Late: 47, Early: 0, Misses: 0
e1f-> Hits: 5, Late: 0, Early: 0, Misses: 0
e20-> Hits: 117, Late: 1, Early: 0, Misses: 0
e22-> Hits: 29, Late: 0, Early: 0, Misses: 0
e24-> Hits: 240, Late: 0, Early: 0, Misses: 0
e25-> Hits: 27, Late: 1, Early: 0, Misses: 0
e28-> Hits: 187, Late: 0, Early: 0, Misses: 0
e2a-> Hits: 3, Late: 0, Early: 0, Misses: 0
e2b-> Hits: 12, Late: 4, Early: 0, Misses: 1
e2c-> Hits: 1684, Late: 0, Early: 0, Misses: 5
e2e-> Hits: 27, Late: 0, Early: 0, Misses: 0
e2f-> Hits: 31, Late: 2, Early: 0, Misses: 0
e30-> Hits: 18671, Late: 258, Early: 0, Misses: 0
e33-> Hits: 35, Late: 0, Early: 0, Misses: 0
e34-> Hits: 2, Late: 0, Early: 0, Misses: 0
e35-> Hits: 5, Late: 0, Early: 0, Misses: 0
e37-> Hits: 20268, Late: 41, Early: 0, Misses: 0
e38-> Hits: 82, Late: 4, Early: 0, Misses: 4
e3a-> Hits: 60, Late: 0, Early: 0, Misses: 0
e3c-> Hits: 6, Late: 0, Early: 0, Misses: 0
e3d-> Hits: 5, Late: 0, Early: 0, Misses: 0
e3e-> Hits: 4, Late: 0, Early: 0, Misses: 0
e3f-> Hits: 87, Late: 0, Early: 0, Misses: 0
e40-> Hits: 16597, Late: 1161, Early: 0, Misses: 0
e43-> Hits: 1, Late: 0, Early: 0, Misses: 0
e44-> Hits: 28, Late: 0, Early: 0, Misses: 0
e45-> Hits: 0, Late: 0, Early: 0, Misses: 60
e46-> Hits: 5, Late: 0, Early: 0, Misses: 0
e47-> Hits: 19658, Late: 24, Early: 0, Misses: 0
e48-> Hits: 10, Late: 0, Early: 0, Misses: 0
e49-> Hits: 1, Late: 0, Early: 0, Misses: 0
e4a-> Hits: 56, Late: 0, Early: 0, Misses: 0
e4b-> Hits: 6, Late: 0, Early: 0, Misses: 0
e4c-> Hits: 61, Late: 0, Early: 0, Misses: 0
e4d-> Hits: 4, Late: 0, Early: 0, Misses: 0
e4e-> Hits: 5, Late: 1, Early: 0, Misses: 0
e4f-> Hits: 6, Late: 0, Early: 0, Misses: 0
e50-> Hits: 9, Late: 0, Early: 0, Misses: 0
e52-> Hits: 1, Late: 0, Early: 0, Misses: 0
e54-> Hits: 65, Late: 1, Early: 0, Misses: 0
e56-> Hits: 0, Late: 1, Early: 0, Misses: 0
e57-> Hits: 1, Late: 0, Early: 0, Misses: 0
e58-> Hits: 80, Late: 5, Early: 0, Misses: 0
e59-> Hits: 4, Late: 0, Early: 0, Misses: 0
e5a-> Hits: 17311, Late: 254, Early: 0, Misses: 0
e5d-> Hits: 29, Late: 0, Early: 0, Misses: 4
e5e-> Hits: 3, Late: 0, Early: 0, Misses: 0
e5f-> Hits: 6, Late: 0, Early: 0, Misses: 0
e60-> Hits: 21, Late: 0, Early: 0, Misses: 0
e63-> Hits: 79, Late: 0, Early: 0, Misses: 0
e65-> Hits: 16572, Late: 1214, Early: 0, Misses: 0
e66-> Hits: 31, Late: 0, Early: 0, Misses: 0
e67-> Hits: 1, Late: 0, Early: 0, Misses: 0
e68-> Hits: 21, Late: 0, Early: 0, Misses: 0
e69-> Hits: 10, Late: 5, Early: 0, Misses: 0
e6d-> Hits: 28, Late: 0, Early: 0, Misses: 0
e70-> Hits: 0, Late: 5, Early: 0, Misses: 0
e71-> Hits: 76, Late: 0, Early: 0, Misses: 0
e75-> Hits: 18, Late: 0, Early: 0, Misses: 4
e76-> Hits: 1, Late: 0, Early: 0, Misses: 0
e77-> Hits: 0, Late: 0, Early: 0, Misses: 1
e78-> Hits: 81, Late: 0, Early: 0, Misses: 0
e79-> Hits: 60, Late: 0, Early: 0, Misses: 0
e7a-> Hits: 3, Late: 1, Early: 0, Misses: 0
e7b-> Hits: 1, Late: 1, Early: 0, Misses: 0
e7f-> Hits: 0, Late: 0, Early: 0, Misses: 1
e80-> Hits: 3, Late: 0, Early: 0, Misses: 0
e82-> Hits: 1, Late: 1, Early: 0, Misses: 0
e83-> Hits: 56, Late: 0, Early: 0, Misses: 0
e84-> Hits: 1, Late: 0, Early: 0, Misses: 0
e85-> Hits: 5, Late: 0, Early: 0, Misses: 0
e87-> Hits: 0, Late: 1, Early: 0, Misses: 0
e89-> Hits: 2706, Late: 0, Early: 0, Misses: 6
e8b-> Hits: 0, Late: 1, Early: 0, Misses: 0
e8c-> Hits: 16080, Late: 0, Early: 0, Misses: 0
e8d-> Hits: 9, Late: 0, Early: 0, Misses: 0
e8e-> Hits: 1, Late: 0, Early: 0, Misses: 3
e8f-> Hits: 84, Late: 10, Early: 0, Misses: 0
e90-> Hits: 22, Late: 0, Early: 0, Misses: 0
e91-> Hits: 7, Late: 0, Early: 0, Misses: 0
e92-> Hits: 0, Late: 1, Early: 0, Misses: 0
e93-> Hits: 1, Late: 0, Early: 0, Misses: 0
e94-> Hits: 3, Late: 0, Early: 0, Misses: 0
e96-> Hits: 1, Late: 0, Early: 0, Misses: 0
e97-> Hits: 1954, Late: 7, Early: 0, Misses: 3
e98-> Hits: 141, Late: 4, Early: 0, Misses: 0
e99-> Hits: 1707, Late: 0, Early: 0, Misses: 3
e9a-> Hits: 1692, Late: 0, Early: 0, Misses: 0
e9b-> Hits: 1, Late: 0, Early: 0, Misses: 0
e9c-> Hits: 3, Late: 0, Early: 0, Misses: 0
e9d-> Hits: 6, Late: 0, Early: 0, Misses: 0
e9f-> Hits: 137, Late: 0, Early: 0, Misses: 0
ea0-> Hits: 1, Late: 8, Early: 0, Misses: 1
ea1-> Hits: 6, Late: 0, Early: 0, Misses: 0
ea2-> Hits: 4285, Late: 0, Early: 0, Misses: 6
ea3-> Hits: 70, Late: 0, Early: 0, Misses: 0
ea4-> Hits: 0, Late: 2, Early: 0, Misses: 0
ea5-> Hits: 31, Late: 0, Early: 0, Misses: 0
ea6-> Hits: 4, Late: 0, Early: 0, Misses: 0
ea7-> Hits: 1765, Late: 5, Early: 0, Misses: 4
ea8-> Hits: 1, Late: 2, Early: 0, Misses: 0
eaa-> Hits: 76, Late: 0, Early: 0, Misses: 0
eab-> Hits: 3, Late: 0, Early: 0, Misses: 0
eac-> Hits: 3, Late: 0, Early: 0, Misses: 0
ead-> Hits: 1, Late: 0, Early: 0, Misses: 0
eaf-> Hits: 2, Late: 0, Early: 0, Misses: 0
eb0-> Hits: 3, Late: 1, Early: 0, Misses: 0
eb1-> Hits: 167, Late: 0, Early: 0, Misses: 0
eb2-> Hits: 1, Late: 0, Early: 0, Misses: 0
eb3-> Hits: 1, Late: 4, Early: 0, Misses: 0
eb4-> Hits: 5, Late: 1, Early: 0, Misses: 1
eb6-> Hits: 0, Late: 1, Early: 0, Misses: 0
eb7-> Hits: 1, Late: 0, Early: 0, Misses: 0
eb8-> Hits: 3, Late: 0, Early: 0, Misses: 0
eba-> Hits: 78, Late: 0, Early: 0, Misses: 0
ebb-> Hits: 3, Late: 0, Early: 0, Misses: 0
ebc-> Hits: 2694, Late: 0, Early: 0, Misses: 6
ebe-> Hits: 115, Late: 0, Early: 0, Misses: 0
ec0-> Hits: 104, Late: 80, Early: 0, Misses: 0
ec1-> Hits: 1, Late: 0, Early: 0, Misses: 0
ec2-> Hits: 8, Late: 0, Early: 0, Misses: 0
ec3-> Hits: 1, Late: 0, Early: 0, Misses: 0
ec4-> Hits: 2, Late: 0, Early: 0, Misses: 0
ec5-> Hits: 63, Late: 0, Early: 0, Misses: 0
ec6-> Hits: 5, Late: 0, Early: 0, Misses: 0
ec7-> Hits: 1620, Late: 0, Early: 0, Misses: 0
ec9-> Hits: 1, Late: 0, Early: 0, Misses: 1
eca-> Hits: 1068, Late: 5, Early: 0, Misses: 5
ecb-> Hits: 40, Late: 14, Early: 0, Misses: 0
ecc-> Hits: 2, Late: 0, Early: 0, Misses: 0
ece-> Hits: 57, Late: 0, Early: 0, Misses: 0
ed0-> Hits: 0, Late: 1, Early: 0, Misses: 0
ed1-> Hits: 3, Late: 0, Early: 0, Misses: 0
ed3-> Hits: 102, Late: 0, Early: 0, Misses: 0
ed4-> Hits: 16, Late: 0, Early: 0, Misses: 0
ed5-> Hits: 2792, Late: 33, Early: 0, Misses: 22
ed6-> Hits: 4, Late: 0, Early: 0, Misses: 0
ed7-> Hits: 5, Late: 4, Early: 0, Misses: 0
ed8-> Hits: 13, Late: 0, Early: 0, Misses: 0
eda-> Hits: 0, Late: 1, Early: 0, Misses: 0
edb-> Hits: 81, Late: 0, Early: 0, Misses: 0
edc-> Hits: 1, Late: 0, Early: 0, Misses: 0
ede-> Hits: 2727, Late: 5, Early: 0, Misses: 22
edf-> Hits: 1633, Late: 0, Early: 0, Misses: 0
ee0-> Hits: 6, Late: 0, Early: 0, Misses: 0
ee1-> Hits: 1710, Late: 0, Early: 0, Misses: 0
ee3-> Hits: 3, Late: 0, Early: 0, Misses: 0
ee5-> Hits: 2, Late: 4, Early: 0, Misses: 0
ee6-> Hits: 9, Late: 0, Early: 0, Misses: 0
ee7-> Hits: 1, Late: 0, Early: 0, Misses: 0
ee8-> Hits: 2727, Late: 5, Early: 0, Misses: 22
ee9-> Hits: 2, Late: 0, Early: 0, Misses: 0
eea-> Hits: 26, Late: 0, Early: 0, Misses: 0
eeb-> Hits: 3, Late: 0, Early: 0, Misses: 0
eec-> Hits: 1, Late: 4, Early: 0, Misses: 0
eed-> Hits: 61, Late: 1, Early: 0, Misses: 0
eee-> Hits: 370, Late: 0, Early: 0, Misses: 0
ef0-> Hits: 2133, Late: 48, Early: 0, Misses: 0
ef1-> Hits: 2757, Late: 1, Early: 0, Misses: 0
ef2-> Hits: 5, Late: 0, Early: 0, Misses: 0
ef3-> Hits: 2055, Late: 0, Early: 0, Misses: 0
ef4-> Hits: 4, Late: 3, Early: 0, Misses: 0
ef5-> Hits: 60, Late: 1, Early: 0, Misses: 0
ef6-> Hits: 1, Late: 10, Early: 0, Misses: 0
ef7-> Hits: 0, Late: 1, Early: 0, Misses: 0
ef8-> Hits: 2, Late: 0, Early: 0, Misses: 0
ef9-> Hits: 2705, Late: 59, Early: 0, Misses: 0
efa-> Hits: 2250, Late: 0, Early: 0, Misses: 103
efb-> Hits: 4, Late: 0, Early: 0, Misses: 0
efc-> Hits: 81, Late: 0, Early: 0, Misses: 0
efd-> Hits: 1961, Late: 1, Early: 0, Misses: 112
efe-> Hits: 1, Late: 0, Early: 0, Misses: 0
eff-> Hits: 10, Late: 0, Early: 0, Misses: 0
f00-> Hits: 1493, Late: 11, Early: 0, Misses: 0
f01-> Hits: 2696, Late: 59, Early: 0, Misses: 0
f02-> Hits: 9, Late: 0, Early: 0, Misses: 0
f03-> Hits: 2, Late: 0, Early: 0, Misses: 0
f05-> Hits: 4, Late: 0, Early: 0, Misses: 0
f06-> Hits: 361, Late: 0, Early: 0, Misses: 0
f07-> Hits: 2, Late: 0, Early: 0, Misses: 0
f08-> Hits: 63, Late: 0, Early: 0, Misses: 0
f09-> Hits: 1, Late: 0, Early: 0, Misses: 0
f0a-> Hits: 222, Late: 0, Early: 0, Misses: 0
f0b-> Hits: 2, Late: 0, Early: 0, Misses: 0
f0c-> Hits: 62, Late: 1, Early: 0, Misses: 0
f0d-> Hits: 5, Late: 0, Early: 0, Misses: 0
f10-> Hits: 3, Late: 1, Early: 0, Misses: 0
f12-> Hits: 2948, Late: 20, Early: 0, Misses: 0
f14-> Hits: 1, Late: 1, Early: 0, Misses: 0
f15-> Hits: 17, Late: 0, Early: 0, Misses: 0
f16-> Hits: 4, Late: 0, Early: 0, Misses: 0
f18-> Hits: 4, Late: 2, Early: 0, Misses: 0
f1a-> Hits: 6, Late: 0, Early: 0, Misses: 0
f1b-> Hits: 27, Late: 1, Early: 0, Misses: 0
f1c-> Hits: 1, Late: 0, Early: 0, Misses: 1
f1d-> Hits: 2815, Late: 0, Early: 0, Misses: 0
f1e-> Hits: 292, Late: 0, Early: 0, Misses: 0
f20-> Hits: 251, Late: 7, Early: 0, Misses: 0
f21-> Hits: 1, Late: 0, Early: 0, Misses: 0
f22-> Hits: 30, Late: 0, Early: 0, Misses: 0
f23-> Hits: 1623, Late: 0, Early: 0, Misses: 0
f24-> Hits: 2, Late: 0, Early: 0, Misses: 0
f25-> Hits: 2732, Late: 22, Early: 0, Misses: 0
f26-> Hits: 0, Late: 1, Early: 0, Misses: 0
f27-> Hits: 135, Late: 0, Early: 0, Misses: 0
f29-> Hits: 37, Late: 0, Early: 0, Misses: 0
f2a-> Hits: 3117, Late: 700, Early: 0, Misses: 0
f2b-> Hits: 81, Late: 0, Early: 0, Misses: 0
f2c-> Hits: 3, Late: 0, Early: 0, Misses: 0
f2d-> Hits: 1, Late: 0, Early: 0, Misses: 0
f2e-> Hits: 32, Late: 1, Early: 0, Misses: 1
f2f-> Hits: 3, Late: 1, Early: 0, Misses: 1
f32-> Hits: 1, Late: 0, Early: 0, Misses: 0
f33-> Hits: 3, Late: 0, Early: 0, Misses: 0
f35-> Hits: 242, Late: 5, Early: 0, Misses: 0
f36-> Hits: 158, Late: 0, Early: 0, Misses: 0
f37-> Hits: 460, Late: 0, Early: 0, Misses: 0
f38-> Hits: 136, Late: 0, Early: 0, Misses: 0
f39-> Hits: 81, Late: 0, Early: 0, Misses: 1
f3a-> Hits: 27, Late: 0, Early: 0, Misses: 0
f3c-> Hits: 1, Late: 0, Early: 0, Misses: 0
f3d-> Hits: 3, Late: 0, Early: 0, Misses: 1
f3f-> Hits: 2753, Late: 0, Early: 0, Misses: 0
f40-> Hits: 218, Late: 0, Early: 0, Misses: 0
f41-> Hits: 0, Late: 0, Early: 0, Misses: 1
f42-> Hits: 281, Late: 6, Early: 0, Misses: 0
f44-> Hits: 28, Late: 0, Early: 0, Misses: 0
f47-> Hits: 3, Late: 0, Early: 0, Misses: 0
f48-> Hits: 22, Late: 7, Early: 0, Misses: 0
f49-> Hits: 31, Late: 1, Early: 0, Misses: 0
f4a-> Hits: 1, Late: 1, Early: 0, Misses: 0
f4c-> Hits: 1, Late: 0, Early: 0, Misses: 0
f4d-> Hits: 473, Late: 0, Early: 0, Misses: 0
f4e-> Hits: 0, Late: 0, Early: 0, Misses: 4
f4f-> Hits: 1, Late: 0, Early: 0, Misses: 0
f50-> Hits: 4, Late: 1, Early: 0, Misses: 0
f51-> Hits: 24, Late: 0, Early: 0, Misses: 0
f52-> Hits: 1, Late: 0, Early: 0, Misses: 0
f56-> Hits: 4, Late: 4, Early: 0, Misses: 0
f58-> Hits: 1, Late: 1, Early: 0, Misses: 0
f59-> Hits: 29, Late: 11, Early: 0, Misses: 1
f5b-> Hits: 2, Late: 0, Early: 0, Misses: 0
f5c-> Hits: 1, Late: 0, Early: 0, Misses: 0
f5d-> Hits: 0, Late: 1, Early: 0, Misses: 0
f5f-> Hits: 4, Late: 0, Early: 0, Misses: 0
f60-> Hits: 1718, Late: 63, Early: 0, Misses: 1
f61-> Hits: 7, Late: 0, Early: 0, Misses: 0
f62-> Hits: 1590, Late: 1, Early: 0, Misses: 0
f63-> Hits: 195, Late: 0, Early: 0, Misses: 0
f64-> Hits: 80, Late: 0, Early: 0, Misses: 0
f65-> Hits: 190, Late: 0, Early: 0, Misses: 5
f67-> Hits: 4, Late: 0, Early: 0, Misses: 0
f69-> Hits: 107, Late: 8, Early: 0, Misses: 0
f6a-> Hits: 1613, Late: 0, Early: 0, Misses: 0
f6b-> Hits: 0, Late: 0, Early: 0, Misses: 2
f6c-> Hits: 166, Late: 0, Early: 0, Misses: 0
f6d-> Hits: 127, Late: 1, Early: 0, Misses: 8
f6e-> Hits: 11, Late: 0, Early: 0, Misses: 0
f70-> Hits: 23840, Late: 109, Early: 0, Misses: 0
f71-> Hits: 81, Late: 0, Early: 0, Misses: 1
f72-> Hits: 128, Late: 0, Early: 0, Misses: 8
f73-> Hits: 12, Late: 0, Early: 0, Misses: 0
f75-> Hits: 1, Late: 0, Early: 0, Misses: 0
f76-> Hits: 27650, Late: 246, Early: 0, Misses: 0
f77-> Hits: 0, Late: 1, Early: 0, Misses: 0
f78-> Hits: 1, Late: 0, Early: 0, Misses: 0
f79-> Hits: 61, Late: 0, Early: 0, Misses: 0
f7a-> Hits: 1, Late: 0, Early: 0, Misses: 1
f7b-> Hits: 31, Late: 7, Early: 0, Misses: 0
f7c-> Hits: 194, Late: 48, Early: 0, Misses: 1
f7e-> Hits: 3, Late: 0, Early: 0, Misses: 0
f80-> Hits: 16111, Late: 4, Early: 0, Misses: 0
f82-> Hits: 173, Late: 0, Early: 0, Misses: 0
f84-> Hits: 37, Late: 0, Early: 0, Misses: 0
f85-> Hits: 1, Late: 0, Early: 0, Misses: 0
f86-> Hits: 10242, Late: 60, Early: 0, Misses: 0
f87-> Hits: 128, Late: 0, Early: 0, Misses: 0
f88-> Hits: 82, Late: 1, Early: 0, Misses: 0
f89-> Hits: 61, Late: 99, Early: 0, Misses: 2
f8a-> Hits: 7, Late: 0, Early: 0, Misses: 0
f8b-> Hits: 5, Late: 0, Early: 0, Misses: 0
f8c-> Hits: 82, Late: 0, Early: 0, Misses: 4
f8d-> Hits: 62, Late: 24, Early: 0, Misses: 0
f8f-> Hits: 1, Late: 0, Early: 0, Misses: 0
f90-> Hits: 1, Late: 0, Early: 0, Misses: 0
f91-> Hits: 1606, Late: 1, Early: 0, Misses: 0
f92-> Hits: 1, Late: 0, Early: 0, Misses: 0
f95-> Hits: 135, Late: 0, Early: 0, Misses: 0
f96-> Hits: 1, Late: 0, Early: 0, Misses: 0
f98-> Hits: 1516, Late: 101, Early: 0, Misses: 0
f99-> Hits: 7, Late: 0, Early: 0, Misses: 0
f9b-> Hits: 108, Late: 7, Early: 0, Misses: 0
f9c-> Hits: 19, Late: 1, Early: 0, Misses: 0
f9d-> Hits: 1, Late: 0, Early: 0, Misses: 0
f9e-> Hits: 1797, Late: 2, Early: 0, Misses: 0
fa0-> Hits: 1, Late: 0, Early: 0, Misses: 0
fa1-> Hits: 5, Late: 0, Early: 0, Misses: 0
fa2-> Hits: 81, Late: 0, Early: 0, Misses: 0
fa3-> Hits: 1, Late: 1, Early: 0, Misses: 0
fa4-> Hits: 9, Late: 0, Early: 0, Misses: 0
fa6-> Hits: 2, Late: 0, Early: 0, Misses: 0
fa8-> Hits: 1, Late: 0, Early: 0, Misses: 0
fa9-> Hits: 180, Late: 0, Early: 0, Misses: 0
faa-> Hits: 1, Late: 0, Early: 0, Misses: 0
fae-> Hits: 130, Late: 0, Early: 0, Misses: 5
faf-> Hits: 2958, Late: 61, Early: 0, Misses: 0
fb0-> Hits: 5244, Late: 118, Early: 0, Misses: 2
fb2-> Hits: 25, Late: 8, Early: 0, Misses: 0
fb3-> Hits: 1, Late: 0, Early: 0, Misses: 0
fb4-> Hits: 39, Late: 0, Early: 0, Misses: 0
fb5-> Hits: 18, Late: 0, Early: 0, Misses: 0
fb6-> Hits: 5, Late: 0, Early: 0, Misses: 0
fb8-> Hits: 9, Late: 0, Early: 0, Misses: 0
fb9-> Hits: 1535, Late: 41, Early: 0, Misses: 0
fba-> Hits: 0, Late: 1, Early: 0, Misses: 0
fc0-> Hits: 1629, Late: 0, Early: 0, Misses: 0
fc1-> Hits: 5, Late: 0, Early: 0, Misses: 3
fc2-> Hits: 4, Late: 0, Early: 0, Misses: 0
fc3-> Hits: 2, Late: 0, Early: 0, Misses: 0
fc4-> Hits: 40, Late: 0, Early: 0, Misses: 2
fc6-> Hits: 1, Late: 0, Early: 0, Misses: 0
fc7-> Hits: 165, Late: 3, Early: 0, Misses: 0
fcb-> Hits: 1, Late: 0, Early: 0, Misses: 0
fcc-> Hits: 0, Late: 0, Early: 0, Misses: 1
fcd-> Hits: 1875, Late: 0, Early: 0, Misses: 0
fce-> Hits: 7, Late: 0, Early: 0, Misses: 0
fd0-> Hits: 97, Late: 55, Early: 0, Misses: 0
fd1-> Hits: 1, Late: 0, Early: 0, Misses: 0
fd2-> Hits: 2, Late: 0, Early: 0, Misses: 0
fd3-> Hits: 1, Late: 0, Early: 0, Misses: 0
fd4-> Hits: 46, Late: 16, Early: 0, Misses: 0
fd6-> Hits: 4493, Late: 0, Early: 0, Misses: 111
fd7-> Hits: 30, Late: 0, Early: 0, Misses: 0
fd8-> Hits: 1, Late: 0, Early: 0, Misses: 0
fd9-> Hits: 46, Late: 0, Early: 0, Misses: 0
fdb-> Hits: 1450, Late: 0, Early: 0, Misses: 0
fdc-> Hits: 4, Late: 0, Early: 0, Misses: 0
fde-> Hits: 3, Late: 4, Early: 0, Misses: 0
fe0-> Hits: 26, Late: 9, Early: 0, Misses: 1
fe3-> Hits: 1548, Late: 0, Early: 0, Misses: 0
fe5-> Hits: 82, Late: 0, Early: 0, Misses: 0
fe6-> Hits: 910, Late: 0, Early: 0, Misses: 2
fe9-> Hits: 148, Late: 1, Early: 0, Misses: 0
fea-> Hits: 0, Late: 1, Early: 0, Misses: 0
feb-> Hits: 842, Late: 0, Early: 0, Misses: 3
fee-> Hits: 36, Late: 0, Early: 0, Misses: 0
ff0-> Hits: 0, Late: 1, Early: 0, Misses: 0
ff1-> Hits: 1, Late: 0, Early: 0, Misses: 0
ff2-> Hits: 38, Late: 2, Early: 0, Misses: 1
ff3-> Hits: 171, Late: 0, Early: 0, Misses: 0
ff5-> Hits: 1, Late: 0, Early: 0, Misses: 0
ff6-> Hits: 4, Late: 0, Early: 0, Misses: 0
ff8-> Hits: 4, Late: 0, Early: 0, Misses: 0
ff9-> Hits: 9, Late: 0, Early: 0, Misses: 0
ffb-> Hits: 21, Late: 0, Early: 0, Misses: 0
ffc-> Hits: 6, Late: 0, Early: 0, Misses: 0
ffd-> Hits: 1, Late: 0, Early: 0, Misses: 0
ffe-> Hits: 29, Late: 0, Early: 0, Misses: 0
Total misses (from ip) 222272
Total accesses (misses) 22176161 222272
Pref: Addr 0 IP 0 Current 0

DRAM Statistics
 CHANNEL 0
 RQ ROW_BUFFER_HIT:      76006  ROW_BUFFER_MISS:     188740
 DBUS_CONGESTED:         67
 WQ ROW_BUFFER_HIT:      36956  ROW_BUFFER_MISS:     115456  FULL:       2634

 AVG_CONGESTED_CYCLE: 4
 All warmup complete: 2
Channel 0 Bank busy for read cycles: 0
Channel 0 Bank busy for write cycles: 0
Channel 0
Rank 0
0banks busy for read cycles: 26980907
0banks busy for write cycles: 26948
1banks busy for read cycles: 8706581
1banks busy for write cycles: 3907715
2banks busy for read cycles: 4573923
2banks busy for write cycles: 1245102
3banks busy for read cycles: 955163
3banks busy for write cycles: 420173
4banks busy for read cycles: 463651
4banks busy for write cycles: 232179
5banks busy for read cycles: 325013
5banks busy for write cycles: 164063
6banks busy for read cycles: 323137
6banks busy for write cycles: 122133
7banks busy for read cycles: 329092
7banks busy for write cycles: 211129
8banks busy for read cycles: 582945
8banks busy for write cycles: 1741650

CPU 0 Branch Prediction Accuracy: 95.8318% MPKI: 1.46072 Average ROB Occupancy at Mispredict: 41.5961
Branch types
NOT_BRANCH: 48247437 96.4949%
BRANCH_DIRECT_JUMP: 17950 0.0359%
BRANCH_INDIRECT: 5 1e-05%
BRANCH_CONDITIONAL: 1696758 3.39352%
BRANCH_DIRECT_CALL: 18763 0.037526%
BRANCH_INDIRECT_CALL: 0 0%
BRANCH_RETURN: 18762 0.037524%
BRANCH_OTHER: 0 0%

DRAM PAGES: 1048576
Allocated PAGES: 6093
