
*** ChampSim Multicore Out-of-Order Simulator ***

Warmup Instructions: 50000000
Simulation Instructions: 50000000
Number of CPUs: 1
LLC sets: 2048
LLC ways: 16
Off-chip DRAM Size: 4096 MB Channels: 1 Width: 64-bit Data Rate: 6400 MT/s
CPU 0 runs ../tracer/traces/623.xalancbmk_s-10B.champsimtrace.xz
.xz
CPU 0 Bimodal branch predictor
BTB has LRU replacement policy
ITLB has LRU replacement policy
DTLB has LRU replacement policy
STLB has LRU replacement policy
L1I has LRU replacement policy
CPU 0 L1D Berti prefetcher
L1D has LRU replacement policy
L2C has LRU replacement policy
Heartbeat CPU 0 instructions: 10000003 cycles: 3087798 heartbeat IPC: 3.23855 cumulative IPC: 3.23855 (Simulation time: 0 hr 1 min 11 sec) 
Heartbeat CPU 0 instructions: 20000000 cycles: 6152856 heartbeat IPC: 3.26258 cumulative IPC: 3.25052 (Simulation time: 0 hr 2 min 25 sec) 
Heartbeat CPU 0 instructions: 30000001 cycles: 9230932 heartbeat IPC: 3.24878 cumulative IPC: 3.24994 (Simulation time: 0 hr 3 min 35 sec) 
Heartbeat CPU 0 instructions: 40000003 cycles: 12318600 heartbeat IPC: 3.23869 cumulative IPC: 3.24712 (Simulation time: 0 hr 4 min 44 sec) 
Heartbeat CPU 0 instructions: 50000003 cycles: 15419905 heartbeat IPC: 3.22445 cumulative IPC: 3.24256 (Simulation time: 0 hr 5 min 56 sec) 

Warmup complete CPU 0 instructions: 50000003 cycles: 15419905 (Simulation time: 0 hr 5 min 56 sec) 

Heartbeat CPU 0 instructions: 60000001 cycles: 45526399 heartbeat IPC: 0.332154 cumulative IPC: 0.332154 (Simulation time: 0 hr 7 min 30 sec) 
Heartbeat CPU 0 instructions: 70000000 cycles: 75486066 heartbeat IPC: 0.333782 cumulative IPC: 0.332966 (Simulation time: 0 hr 9 min 3 sec) 
Heartbeat CPU 0 instructions: 80000002 cycles: 105914862 heartbeat IPC: 0.328636 cumulative IPC: 0.33151 (Simulation time: 0 hr 10 min 40 sec) 
Heartbeat CPU 0 instructions: 90000000 cycles: 135580390 heartbeat IPC: 0.337092 cumulative IPC: 0.332888 (Simulation time: 0 hr 12 min 13 sec) 
Heartbeat CPU 0 instructions: 100000003 cycles: 166004693 heartbeat IPC: 0.328685 cumulative IPC: 0.332039 (Simulation time: 0 hr 13 min 46 sec) 
Finished CPU 0 instructions: 50000000 cycles: 150584788 cumulative IPC: 0.332039 (Simulation time: 0 hr 13 min 46 sec) 

ChampSim completed all CPUs

Region of Interest Statistics

CPU 0 cumulative IPC: 0.332039 instructions: 50000000 cycles: 150584788
ITLB TOTAL     ACCESS:    7794838  HIT:    7760929  MISS:      33909  HIT %:     99.565  MISS %:   0.435019   MPKI: 0.67818
ITLB LOAD TRANSLATION ACCESS:    7794838  HIT:    7760929  MISS:      33909  HIT %:     99.565  MISS %:   0.435019   MPKI: 0.67818
ITLB PREFETCH  REQUESTED:          0  ISSUED:          0  USEFUL:          0  USELESS:          0
ITLB USEFUL LOAD PREFETCHES:          0 PREFETCH ISSUED TO LOWER LEVEL:          0  ACCURACY: -nan
ITLB TIMELY PREFETCHES:          0 LATE PREFETCHES: 0 DROPPED PREFETCHES: 0
ITLB PREFETCHES SAME FILL-ORIGIN LEVEL: 0 DIFFERENT FILL-ORIGIN LEVEL: 0
ITLB AVERAGE MISS LATENCY: 13.6164 cycles
ITLB RQ	ACCESS:    8958739	FORWARD:          0	MERGED:    1155748	TO_CACHE:    7802991

DTLB TOTAL     ACCESS:   10409400  HIT:   10072086  MISS:     337314  HIT %:    96.7595  MISS %:    3.24047   MPKI: 6.74628
DTLB LOAD TRANSLATION ACCESS:   10409400  HIT:   10072086  MISS:     337314  HIT %:    96.7595  MISS %:    3.24047   MPKI: 6.74628
DTLB PREFETCH  REQUESTED:          0  ISSUED:          0  USEFUL:          0  USELESS:          0
DTLB USEFUL LOAD PREFETCHES:          0 PREFETCH ISSUED TO LOWER LEVEL:          0  ACCURACY: -nan
DTLB TIMELY PREFETCHES:          0 LATE PREFETCHES: 0 DROPPED PREFETCHES: 0
DTLB PREFETCHES SAME FILL-ORIGIN LEVEL: 0 DIFFERENT FILL-ORIGIN LEVEL: 0
DTLB AVERAGE MISS LATENCY: 16.2842 cycles
DTLB RQ	ACCESS:   11479495	FORWARD:          0	MERGED:    1042529	TO_CACHE:   10436966

STLB TOTAL     ACCESS:    6124676  HIT:    5867638  MISS:     257038  HIT %:    95.8032  MISS %:    4.19676   MPKI: 5.14076
STLB LOAD TRANSLATION ACCESS:     371223  HIT:     288098  MISS:      83125  HIT %:    77.6078  MISS %:    22.3922   MPKI: 1.6625
STLB TRANSLATION FROM L1D PREFETCHER ACCESS:    5753453  HIT:    5579540  MISS:     173913  HIT %:    96.9772  MISS %:    3.02276   MPKI: 3.47826
STLB PREFETCH  REQUESTED:          0  ISSUED:          0  USEFUL:     172180  USELESS:       1734
STLB USEFUL LOAD PREFETCHES:     172180 PREFETCH ISSUED TO LOWER LEVEL:          0  ACCURACY: inf
STLB TIMELY PREFETCHES:     172180 LATE PREFETCHES: 149 DROPPED PREFETCHES: 25515
STLB PREFETCHES SAME FILL-ORIGIN LEVEL: 0 DIFFERENT FILL-ORIGIN LEVEL: 0
STLB AVERAGE MISS LATENCY: 778.231 cycles
STLB RQ	ACCESS:    6818938	FORWARD:          0	MERGED:     657330	TO_CACHE:    6161608

STLB Hit, L1D data hit: 0
STLB Hit, L2C data hit: 0
STLB Hit, LLC data hit: 0
STLB Hit, LLC data miss: 0
STLB STLB hints to L2: 0
L1D TOTAL     ACCESS:   17529467  HIT:   15140352  MISS:    2389115  HIT %:    86.3709  MISS %:    13.6291   MPKI: 47.7823
L1D LOAD      ACCESS:    9039217  HIT:    7988434  MISS:    1050783  HIT %:    88.3753  MISS %:    11.6247   MPKI: 21.0157
L1D RFO       ACCESS:    2340322  HIT:    2317475  MISS:      22847  HIT %:    99.0238  MISS %:   0.976233   MPKI: 0.45694
L1D PREFETCH  ACCESS:    6149928  HIT:    4834443  MISS:    1315485  HIT %:    78.6097  MISS %:    21.3903   MPKI: 26.3097
AGUS PREFETCH L1 MISS: 0
L1D PREFETCH  REQUESTED:   13446927  ISSUED:   13446927  USEFUL:     306997  USELESS:    1008473
L1D USEFUL LOAD PREFETCHES:     306997 PREFETCH ISSUED TO LOWER LEVEL:    1336682  ACCURACY: 22.9671
L1D TIMELY PREFETCHES:     306997 LATE PREFETCHES: 21169 DROPPED PREFETCHES: 28251
L1D PREFETCHES SAME FILL-ORIGIN LEVEL: 1336682 DIFFERENT FILL-ORIGIN LEVEL: 0
L1D AVERAGE MISS LATENCY: 793350 cycles
L1D RQ	ACCESS:   14681279	FORWARD:          0	MERGED:    5536667	TO_CACHE:    9084702
L1D WQ	ACCESS:    2425925	FORWARD:      59919	MERGED:      31132	TO_CACHE:    2394793
L1D PQ	ACCESS:    6999212	FORWARD:          0	MERGED:     551488	TO_CACHE:    6447715

L1D UNIQUE REGIONS ACCESSED: 0
L1D REGIONS CONFLICTS: 0
L1D Cross Page Prefetch Requests: 0
L1D Same Page Prefetch Requests: 14029678
L1D ROI Sum of L1D PQ occupancy: 108280223
L1D PREFETCHES PUSHED FROM L2C: 0
L1I TOTAL     ACCESS:    8909904  HIT:    8733865  MISS:     176039  HIT %:    98.0242  MISS %:    1.97577   MPKI: 3.52078
L1I LOAD      ACCESS:    8909904  HIT:    8733865  MISS:     176039  HIT %:    98.0242  MISS %:    1.97577   MPKI: 3.52078
L1I PREFETCH  REQUESTED:          0  ISSUED:          0  USEFUL:          0  USELESS:          0
L1I USEFUL LOAD PREFETCHES:          0 PREFETCH ISSUED TO LOWER LEVEL:          0  ACCURACY: -nan
L1I TIMELY PREFETCHES:          0 LATE PREFETCHES: 0 DROPPED PREFETCHES: 0
L1I PREFETCHES SAME FILL-ORIGIN LEVEL: 0 DIFFERENT FILL-ORIGIN LEVEL: 0
L1I AVERAGE MISS LATENCY: 27.7558 cycles
L1I RQ	ACCESS:   15131394	FORWARD:          0	MERGED:    6172655	TO_CACHE:    8958739

BTB TOTAL     ACCESS:    8240387  HIT:    8162325  MISS:      78062  HIT %:    99.0527  MISS %:    0.94731   MPKI: 1.56124
BTB BRANCH_DIRECT_JUMP	ACCESS:     125745  HIT:     125105  MISS:        640
BTB BRANCH_INDIRECT	ACCESS:      22046  HIT:       8847  MISS:      13199
BTB BRANCH_CONDITIONAL	ACCESS:    6916732  HIT:    6913884  MISS:       2848
BTB BRANCH_DIRECT_CALL	ACCESS:     323608  HIT:     322533  MISS:       1075
BTB BRANCH_INDIRECT_CALL	ACCESS:     264324  HIT:     261288  MISS:       3036
BTB BRANCH_RETURN	ACCESS:     587932  HIT:     530668  MISS:      57264
BTB BRANCH_OTHER ACCESS:          0  HIT:          0  MISS:          0

L2C TOTAL     ACCESS:    2895963  HIT:     591353  MISS:    2304610  HIT %:    20.4199  MISS %:    79.5801   MPKI: 46.0922
L2C LOAD      ACCESS:    1205649  HIT:     237576  MISS:     968073  HIT %:    19.7052  MISS %:    80.2948   MPKI: 19.3615
L2C DATA LOAD MPKI: 18.522
L2C INSTRUCTION LOAD MPKI: 0.83944
L2C RFO       ACCESS:      22813  HIT:       9693  MISS:      13120  HIT %:    42.4889  MISS %:    57.5111   MPKI: 0.2624
L2C PREFETCH  ACCESS:    1336682  HIT:      75911  MISS:    1260771  HIT %:    5.67906  MISS %:    94.3209   MPKI: 25.2154
AGUS PREFETCH L1 MISS: 0
L2C DATA PREFETCH MPKI: 25.2154
L2C INSTRUCTION PREFETCH MPKI: 0
L2C WRITEBACK ACCESS:      47032  HIT:      46755  MISS:        277  HIT %:     99.411  MISS %:   0.588961   MPKI: 0.00554
L2C LOAD TRANSLATION ACCESS:      83352  HIT:      73255  MISS:      10097  HIT %:    87.8863  MISS %:    12.1137   MPKI: 0.20194
L2C TRANSLATION FROM L1D PREFETCHER ACCESS:     200435  HIT:     148163  MISS:      52272  HIT %:    73.9207  MISS %:    26.0793   MPKI: 1.04544
L2C PREFETCH  REQUESTED:          0  ISSUED:          0  USEFUL:      73181  USELESS:    1239825
L2C USEFUL LOAD PREFETCHES:      73181 PREFETCH ISSUED TO LOWER LEVEL:    1260771  ACCURACY: 5.80446
L2C TIMELY PREFETCHES:      73181 LATE PREFETCHES: 0 DROPPED PREFETCHES: 0
L2C PREFETCHES SAME FILL-ORIGIN LEVEL: 0 DIFFERENT FILL-ORIGIN LEVEL: 0
L2C AVERAGE MISS LATENCY: 110.716 cycles
L2C RQ	ACCESS:    1512259	FORWARD:          0	MERGED:          0	TO_CACHE:    1512249
L2C WQ	ACCESS:      47032	FORWARD:         10	MERGED:          0	TO_CACHE:      47032
L2C PQ	ACCESS:    1336682	FORWARD:          0	MERGED:          0	TO_CACHE:    1336682

L2C Instructions Evicting Data 40212
L2C Translations Evicting Data 60407
L2C Data Evicting Data 2099354
L2C Instructions Evicting Instructions 1014
L2C Translations Evicting Instructions 576
L2C Data Evicting Instructions 40397
L2C Instructions Evicting Translations 746
L2C Translations Evicting Translations 1386
L2C Data Evicting Translations 60241
L2C Dense regions hint from L2: 0
PSCL5 TOTAL     ACCESS:     282557  HIT:     282557  MISS:          0  HIT %:        100  MISS %:          0   MPKI: 0
PSCL5 LOAD TRANSLATION ACCESS:      82980  HIT:      82980  MISS:          0  HIT %:        100  MISS %:          0   MPKI: 0
PSCL5 TRANSLATION FROM L1D PREFETCHER ACCESS:     199577  HIT:     199577  MISS:          0  HIT %:        100  MISS %:          0   MPKI: 0
PSCL5 PREFETCH  REQUESTED:          0  ISSUED:          0  USEFUL:          0  USELESS:          0
PSCL5 USEFUL LOAD PREFETCHES:          0 PREFETCH ISSUED TO LOWER LEVEL:          0  ACCURACY: -nan
PSCL5 TIMELY PREFETCHES:          0 LATE PREFETCHES: 0 DROPPED PREFETCHES: 0
PSCL5 PREFETCHES SAME FILL-ORIGIN LEVEL: 0 DIFFERENT FILL-ORIGIN LEVEL: 0

PSCL4 TOTAL     ACCESS:     282557  HIT:     282557  MISS:          0  HIT %:        100  MISS %:          0   MPKI: 0
PSCL4 LOAD TRANSLATION ACCESS:      82980  HIT:      82980  MISS:          0  HIT %:        100  MISS %:          0   MPKI: 0
PSCL4 TRANSLATION FROM L1D PREFETCHER ACCESS:     199577  HIT:     199577  MISS:          0  HIT %:        100  MISS %:          0   MPKI: 0
PSCL4 PREFETCH  REQUESTED:          0  ISSUED:          0  USEFUL:          0  USELESS:          0
PSCL4 USEFUL LOAD PREFETCHES:          0 PREFETCH ISSUED TO LOWER LEVEL:          0  ACCURACY: -nan
PSCL4 TIMELY PREFETCHES:          0 LATE PREFETCHES: 0 DROPPED PREFETCHES: 0
PSCL4 PREFETCHES SAME FILL-ORIGIN LEVEL: 0 DIFFERENT FILL-ORIGIN LEVEL: 0

PSCL3 TOTAL     ACCESS:     282557  HIT:     282557  MISS:          0  HIT %:        100  MISS %:          0   MPKI: 0
PSCL3 LOAD TRANSLATION ACCESS:      82980  HIT:      82980  MISS:          0  HIT %:        100  MISS %:          0   MPKI: 0
PSCL3 TRANSLATION FROM L1D PREFETCHER ACCESS:     199577  HIT:     199577  MISS:          0  HIT %:        100  MISS %:          0   MPKI: 0
PSCL3 PREFETCH  REQUESTED:          0  ISSUED:          0  USEFUL:          0  USELESS:          0
PSCL3 USEFUL LOAD PREFETCHES:          0 PREFETCH ISSUED TO LOWER LEVEL:          0  ACCURACY: -nan
PSCL3 TIMELY PREFETCHES:          0 LATE PREFETCHES: 0 DROPPED PREFETCHES: 0
PSCL3 PREFETCHES SAME FILL-ORIGIN LEVEL: 0 DIFFERENT FILL-ORIGIN LEVEL: 0

PSCL2 TOTAL     ACCESS:     282527  HIT:     281327  MISS:       1200  HIT %:    99.5753  MISS %:   0.424738   MPKI: 0.024
PSCL2 LOAD TRANSLATION ACCESS:      83808  HIT:      82608  MISS:       1200  HIT %:    98.5682  MISS %:    1.43184   MPKI: 0.024
PSCL2 TRANSLATION FROM L1D PREFETCHER ACCESS:     198719  HIT:     198719  MISS:          0  HIT %:        100  MISS %:          0   MPKI: 0
PSCL2 PREFETCH  REQUESTED:          0  ISSUED:          0  USEFUL:          0  USELESS:          0
PSCL2 USEFUL LOAD PREFETCHES:          0 PREFETCH ISSUED TO LOWER LEVEL:          0  ACCURACY: -nan
PSCL2 TIMELY PREFETCHES:          0 LATE PREFETCHES: 0 DROPPED PREFETCHES: 0
PSCL2 PREFETCHES SAME FILL-ORIGIN LEVEL: 0 DIFFERENT FILL-ORIGIN LEVEL: 0

LLC TOTAL     ACCESS:    2328088  HIT:     796606  MISS:    1531482  HIT %:    34.2172  MISS %:    65.7828   MPKI: 30.6296
LLC LOAD      ACCESS:     968073  HIT:     642080  MISS:     325993  HIT %:    66.3256  MISS %:    33.6744   MPKI: 6.51986
LLC RFO       ACCESS:      13120  HIT:       4083  MISS:       9037  HIT %:    31.1204  MISS %:    68.8796   MPKI: 0.18074
LLC PREFETCH  ACCESS:    1260771  HIT:      92471  MISS:    1168300  HIT %:    7.33448  MISS %:    92.6655   MPKI: 23.366
AGUS PREFETCH L1 MISS: 0
LLC WRITEBACK ACCESS:      23755  HIT:      13485  MISS:      10270  HIT %:     56.767  MISS %:     43.233   MPKI: 0.2054
LLC LOAD TRANSLATION ACCESS:      10097  HIT:       7210  MISS:       2887  HIT %:    71.4073  MISS %:    28.5927   MPKI: 0.05774
LLC TRANSLATION FROM L1D PREFETCHER ACCESS:      52272  HIT:      37277  MISS:      14995  HIT %:    71.3135  MISS %:    28.6865   MPKI: 0.2999
LLC PREFETCH  REQUESTED:          0  ISSUED:          0  USEFUL:       4824  USELESS:      28857
LLC USEFUL LOAD PREFETCHES:       4824 PREFETCH ISSUED TO LOWER LEVEL:    1168300  ACCURACY: 0.412908
LLC TIMELY PREFETCHES:       4824 LATE PREFETCHES: 0 DROPPED PREFETCHES: 0
LLC PREFETCHES SAME FILL-ORIGIN LEVEL: 0 DIFFERENT FILL-ORIGIN LEVEL: 0
LLC AVERAGE MISS LATENCY: 121.463 cycles
LLC RQ	ACCESS:    1043562	FORWARD:          0	MERGED:          0	TO_CACHE:    1043562
LLC WQ	ACCESS:      23755	FORWARD:          0	MERGED:          0	TO_CACHE:      23755
LLC PQ	ACCESS:    1260771	FORWARD:          0	MERGED:          0	TO_CACHE:    1260771

LLC Dense regions hint to LLC: 0

RAW hits: 60779
Loads Generated: 14742059
Loads sent to L1D: 14681279
Stores Generated: 2425920
Stores sent to L1D: 2425925
Major fault: 0 Minor fault: 11043
Allocated PAGES: 11043
CPU 0 L1D berti prefetcher final stats
0-> Hits: 60, Late: 0, Early: 0, Misses: 0
2-> Hits: 285, Late: 0, Early: 0, Misses: 0
4-> Hits: 11, Late: 0, Early: 0, Misses: 0
5-> Hits: 48, Late: 0, Early: 0, Misses: 0
7-> Hits: 40, Late: 315, Early: 0, Misses: 0
9-> Hits: 0, Late: 0, Early: 0, Misses: 3
a-> Hits: 145, Late: 0, Early: 0, Misses: 0
e-> Hits: 555, Late: 0, Early: 0, Misses: 0
12-> Hits: 2, Late: 0, Early: 0, Misses: 0
15-> Hits: 1, Late: 0, Early: 0, Misses: 0
17-> Hits: 282, Late: 0, Early: 0, Misses: 0
19-> Hits: 553, Late: 0, Early: 0, Misses: 0
1c-> Hits: 232, Late: 0, Early: 0, Misses: 0
1d-> Hits: 232, Late: 0, Early: 0, Misses: 0
1e-> Hits: 274, Late: 0, Early: 0, Misses: 0
1f-> Hits: 232, Late: 0, Early: 0, Misses: 0
20-> Hits: 300, Late: 0, Early: 0, Misses: 0
21-> Hits: 235, Late: 0, Early: 0, Misses: 0
23-> Hits: 232, Late: 0, Early: 0, Misses: 0
24-> Hits: 146, Late: 0, Early: 0, Misses: 0
25-> Hits: 447, Late: 0, Early: 0, Misses: 0
26-> Hits: 514, Late: 0, Early: 0, Misses: 0
29-> Hits: 9321, Late: 132, Early: 0, Misses: 0
2b-> Hits: 472, Late: 0, Early: 0, Misses: 0
2c-> Hits: 1152, Late: 0, Early: 0, Misses: 0
2f-> Hits: 233, Late: 0, Early: 0, Misses: 0
30-> Hits: 963, Late: 17, Early: 0, Misses: 0
32-> Hits: 49, Late: 0, Early: 0, Misses: 0
33-> Hits: 2411, Late: 912, Early: 0, Misses: 8
34-> Hits: 0, Late: 1, Early: 0, Misses: 0
35-> Hits: 1126, Late: 0, Early: 0, Misses: 0
36-> Hits: 2, Late: 0, Early: 0, Misses: 0
37-> Hits: 4027, Late: 1, Early: 0, Misses: 189
38-> Hits: 11537, Late: 0, Early: 0, Misses: 0
3a-> Hits: 12064, Late: 0, Early: 0, Misses: 0
3b-> Hits: 1, Late: 0, Early: 0, Misses: 0
3c-> Hits: 12462, Late: 0, Early: 0, Misses: 0
3d-> Hits: 282, Late: 0, Early: 0, Misses: 0
3e-> Hits: 19667, Late: 1, Early: 0, Misses: 0
40-> Hits: 18829, Late: 207, Early: 0, Misses: 0
41-> Hits: 20156, Late: 0, Early: 0, Misses: 0
42-> Hits: 2, Late: 0, Early: 0, Misses: 0
45-> Hits: 196, Late: 27, Early: 0, Misses: 1
48-> Hits: 306, Late: 0, Early: 0, Misses: 0
49-> Hits: 658, Late: 0, Early: 0, Misses: 0
4a-> Hits: 211, Late: 12, Early: 0, Misses: 1
4d-> Hits: 211, Late: 21, Early: 0, Misses: 0
4f-> Hits: 1, Late: 0, Early: 0, Misses: 0
50-> Hits: 1838, Late: 153, Early: 0, Misses: 17
52-> Hits: 282, Late: 0, Early: 0, Misses: 0
53-> Hits: 11, Late: 0, Early: 0, Misses: 0
54-> Hits: 172, Late: 187, Early: 0, Misses: 15
55-> Hits: 754, Late: 111, Early: 0, Misses: 0
58-> Hits: 15, Late: 0, Early: 0, Misses: 0
59-> Hits: 1072, Late: 35, Early: 0, Misses: 0
5b-> Hits: 293, Late: 0, Early: 0, Misses: 0
5e-> Hits: 1097, Late: 49, Early: 0, Misses: 0
61-> Hits: 53, Late: 163, Early: 0, Misses: 16
63-> Hits: 34438, Late: 3, Early: 0, Misses: 0
65-> Hits: 477, Late: 42, Early: 0, Misses: 7
67-> Hits: 11, Late: 0, Early: 0, Misses: 0
68-> Hits: 49, Late: 233, Early: 0, Misses: 0
69-> Hits: 116, Late: 0, Early: 0, Misses: 0
6d-> Hits: 923, Late: 0, Early: 0, Misses: 0
6e-> Hits: 26, Late: 189, Early: 0, Misses: 17
71-> Hits: 11331, Late: 5, Early: 0, Misses: 0
75-> Hits: 3, Late: 0, Early: 0, Misses: 0
78-> Hits: 923, Late: 0, Early: 0, Misses: 0
80-> Hits: 75, Late: 168, Early: 0, Misses: 136
81-> Hits: 52, Late: 0, Early: 0, Misses: 0
83-> Hits: 1623, Late: 0, Early: 0, Misses: 0
84-> Hits: 1126, Late: 0, Early: 0, Misses: 0
85-> Hits: 312, Late: 0, Early: 0, Misses: 0
86-> Hits: 1126, Late: 0, Early: 0, Misses: 0
88-> Hits: 1886, Late: 163, Early: 0, Misses: 0
8a-> Hits: 1683, Late: 78, Early: 0, Misses: 0
8b-> Hits: 1533, Late: 52, Early: 0, Misses: 7
8c-> Hits: 824, Late: 188, Early: 0, Misses: 9
8d-> Hits: 5032, Late: 0, Early: 0, Misses: 7
8e-> Hits: 8781, Late: 0, Early: 0, Misses: 53
8f-> Hits: 11105, Late: 3, Early: 0, Misses: 0
90-> Hits: 1456, Late: 15, Early: 0, Misses: 0
91-> Hits: 11380, Late: 0, Early: 0, Misses: 0
92-> Hits: 3, Late: 0, Early: 0, Misses: 0
93-> Hits: 10317, Late: 0, Early: 0, Misses: 0
94-> Hits: 376, Late: 0, Early: 0, Misses: 0
95-> Hits: 11117, Late: 0, Early: 0, Misses: 1
96-> Hits: 3, Late: 0, Early: 0, Misses: 0
97-> Hits: 11356, Late: 1, Early: 0, Misses: 4
99-> Hits: 1, Late: 0, Early: 0, Misses: 0
9a-> Hits: 921, Late: 2, Early: 0, Misses: 0
9b-> Hits: 44, Late: 122, Early: 0, Misses: 0
9d-> Hits: 282, Late: 0, Early: 0, Misses: 0
9f-> Hits: 0, Late: 3, Early: 0, Misses: 0
a0-> Hits: 290, Late: 172, Early: 0, Misses: 2
a1-> Hits: 139, Late: 141, Early: 0, Misses: 2
a3-> Hits: 593, Late: 0, Early: 0, Misses: 0
a4-> Hits: 998, Late: 0, Early: 0, Misses: 0
a5-> Hits: 144, Late: 0, Early: 0, Misses: 0
a6-> Hits: 172, Late: 3, Early: 0, Misses: 5
a7-> Hits: 1045, Late: 594, Early: 0, Misses: 0
a9-> Hits: 1180, Late: 207, Early: 0, Misses: 0
aa-> Hits: 3, Late: 0, Early: 0, Misses: 0
ab-> Hits: 416, Late: 23, Early: 0, Misses: 0
ac-> Hits: 922, Late: 36, Early: 0, Misses: 0
ad-> Hits: 1306, Late: 31, Early: 0, Misses: 0
ae-> Hits: 1153, Late: 9, Early: 0, Misses: 0
af-> Hits: 232, Late: 0, Early: 0, Misses: 0
b0-> Hits: 4186, Late: 50, Early: 0, Misses: 0
b1-> Hits: 232, Late: 0, Early: 0, Misses: 0
b3-> Hits: 1139, Late: 16, Early: 0, Misses: 0
b4-> Hits: 488, Late: 0, Early: 0, Misses: 0
b7-> Hits: 5686, Late: 0, Early: 0, Misses: 8
b8-> Hits: 8, Late: 48, Early: 0, Misses: 0
b9-> Hits: 9995, Late: 519, Early: 0, Misses: 15
ba-> Hits: 325, Late: 0, Early: 0, Misses: 0
bb-> Hits: 7597, Late: 619, Early: 0, Misses: 1
bc-> Hits: 736, Late: 0, Early: 0, Misses: 0
bd-> Hits: 6540, Late: 876, Early: 0, Misses: 4
be-> Hits: 81, Late: 0, Early: 0, Misses: 0
c0-> Hits: 2696, Late: 0, Early: 0, Misses: 0
c1-> Hits: 574, Late: 0, Early: 0, Misses: 0
c2-> Hits: 91, Late: 2, Early: 0, Misses: 0
c4-> Hits: 506, Late: 0, Early: 0, Misses: 0
c8-> Hits: 1108, Late: 0, Early: 0, Misses: 0
c9-> Hits: 163, Late: 0, Early: 0, Misses: 0
ca-> Hits: 638, Late: 1, Early: 0, Misses: 0
cb-> Hits: 1115, Late: 0, Early: 0, Misses: 0
cd-> Hits: 1146, Late: 0, Early: 0, Misses: 0
ce-> Hits: 880, Late: 0, Early: 0, Misses: 0
cf-> Hits: 1146, Late: 0, Early: 0, Misses: 0
d0-> Hits: 10294, Late: 228, Early: 0, Misses: 3
d1-> Hits: 1244, Late: 0, Early: 0, Misses: 0
d2-> Hits: 1349, Late: 608, Early: 0, Misses: 0
d3-> Hits: 2047, Late: 6, Early: 0, Misses: 0
d4-> Hits: 279, Late: 0, Early: 0, Misses: 0
d5-> Hits: 7869, Late: 364, Early: 0, Misses: 0
d6-> Hits: 47, Late: 0, Early: 0, Misses: 0
d7-> Hits: 3879, Late: 310, Early: 0, Misses: 0
db-> Hits: 3057, Late: 0, Early: 0, Misses: 0
dc-> Hits: 1, Late: 0, Early: 0, Misses: 0
dd-> Hits: 9, Late: 0, Early: 0, Misses: 0
e0-> Hits: 694, Late: 0, Early: 0, Misses: 0
e4-> Hits: 11061, Late: 575, Early: 0, Misses: 1
e6-> Hits: 454, Late: 0, Early: 0, Misses: 0
e8-> Hits: 38, Late: 0, Early: 0, Misses: 0
e9-> Hits: 232, Late: 0, Early: 0, Misses: 0
ec-> Hits: 1108, Late: 0, Early: 0, Misses: 0
ed-> Hits: 868, Late: 0, Early: 0, Misses: 12
ef-> Hits: 3, Late: 0, Early: 0, Misses: 0
f0-> Hits: 1170, Late: 62, Early: 0, Misses: 0
f2-> Hits: 821, Late: 287, Early: 0, Misses: 0
f3-> Hits: 6, Late: 0, Early: 0, Misses: 0
f4-> Hits: 127, Late: 0, Early: 0, Misses: 0
f9-> Hits: 8742, Late: 227, Early: 0, Misses: 0
fa-> Hits: 0, Late: 0, Early: 0, Misses: 3
fb-> Hits: 1730, Late: 101, Early: 0, Misses: 0
fc-> Hits: 466, Late: 0, Early: 0, Misses: 0
fd-> Hits: 875, Late: 1, Early: 0, Misses: 4
fe-> Hits: 466, Late: 0, Early: 0, Misses: 0
100-> Hits: 466, Late: 0, Early: 0, Misses: 0
101-> Hits: 875, Late: 1, Early: 0, Misses: 7
102-> Hits: 2113, Late: 163, Early: 0, Misses: 0
103-> Hits: 29, Late: 0, Early: 0, Misses: 0
104-> Hits: 466, Late: 0, Early: 0, Misses: 0
105-> Hits: 466, Late: 0, Early: 0, Misses: 0
106-> Hits: 233, Late: 0, Early: 0, Misses: 0
10b-> Hits: 132, Late: 0, Early: 0, Misses: 0
10c-> Hits: 230, Late: 2, Early: 0, Misses: 0
10d-> Hits: 59, Late: 0, Early: 0, Misses: 0
10f-> Hits: 168, Late: 0, Early: 0, Misses: 3
110-> Hits: 828, Late: 0, Early: 0, Misses: 0
113-> Hits: 480, Late: 0, Early: 0, Misses: 0
115-> Hits: 10529, Late: 0, Early: 0, Misses: 0
116-> Hits: 29, Late: 0, Early: 0, Misses: 0
117-> Hits: 65, Late: 0, Early: 0, Misses: 0
11a-> Hits: 923, Late: 0, Early: 0, Misses: 0
11c-> Hits: 182, Late: 0, Early: 0, Misses: 0
11d-> Hits: 898, Late: 0, Early: 0, Misses: 0
120-> Hits: 282, Late: 0, Early: 0, Misses: 0
121-> Hits: 386, Late: 0, Early: 0, Misses: 0
122-> Hits: 280, Late: 0, Early: 0, Misses: 0
123-> Hits: 0, Late: 0, Early: 0, Misses: 1
126-> Hits: 20, Late: 0, Early: 0, Misses: 0
127-> Hits: 4, Late: 0, Early: 0, Misses: 0
129-> Hits: 10032, Late: 0, Early: 0, Misses: 0
12b-> Hits: 282, Late: 0, Early: 0, Misses: 0
12d-> Hits: 745, Late: 0, Early: 0, Misses: 0
12f-> Hits: 282, Late: 0, Early: 0, Misses: 0
130-> Hits: 1657, Late: 9, Early: 0, Misses: 0
131-> Hits: 4581, Late: 86, Early: 0, Misses: 11
134-> Hits: 3496, Late: 72, Early: 0, Misses: 0
135-> Hits: 826, Late: 0, Early: 0, Misses: 0
136-> Hits: 184, Late: 0, Early: 0, Misses: 0
137-> Hits: 1068, Late: 0, Early: 0, Misses: 0
138-> Hits: 186, Late: 0, Early: 0, Misses: 0
139-> Hits: 1108, Late: 0, Early: 0, Misses: 0
13f-> Hits: 194, Late: 0, Early: 0, Misses: 0
140-> Hits: 923, Late: 0, Early: 0, Misses: 0
141-> Hits: 280, Late: 0, Early: 0, Misses: 0
142-> Hits: 923, Late: 0, Early: 0, Misses: 0
144-> Hits: 925, Late: 0, Early: 0, Misses: 1
145-> Hits: 3, Late: 0, Early: 0, Misses: 0
146-> Hits: 926, Late: 0, Early: 0, Misses: 0
148-> Hits: 925, Late: 0, Early: 0, Misses: 1
149-> Hits: 923, Late: 0, Early: 0, Misses: 0
14a-> Hits: 3, Late: 0, Early: 0, Misses: 0
14c-> Hits: 276, Late: 0, Early: 0, Misses: 0
14d-> Hits: 6, Late: 0, Early: 0, Misses: 0
150-> Hits: 154, Late: 0, Early: 0, Misses: 0
152-> Hits: 10429, Late: 0, Early: 0, Misses: 0
153-> Hits: 10448, Late: 0, Early: 0, Misses: 0
154-> Hits: 10457, Late: 0, Early: 0, Misses: 0
156-> Hits: 1005, Late: 5, Early: 0, Misses: 0
158-> Hits: 1322, Late: 0, Early: 0, Misses: 0
15d-> Hits: 233, Late: 0, Early: 0, Misses: 0
15f-> Hits: 1108, Late: 0, Early: 0, Misses: 0
161-> Hits: 183, Late: 0, Early: 0, Misses: 0
163-> Hits: 1108, Late: 0, Early: 0, Misses: 0
164-> Hits: 3, Late: 0, Early: 0, Misses: 0
165-> Hits: 20, Late: 0, Early: 0, Misses: 0
169-> Hits: 6, Late: 0, Early: 0, Misses: 0
16a-> Hits: 233, Late: 0, Early: 0, Misses: 0
16b-> Hits: 217, Late: 0, Early: 0, Misses: 0
16d-> Hits: 1108, Late: 0, Early: 0, Misses: 0
16f-> Hits: 154, Late: 76, Early: 0, Misses: 3
172-> Hits: 19, Late: 0, Early: 0, Misses: 0
173-> Hits: 240, Late: 0, Early: 0, Misses: 0
176-> Hits: 287, Late: 0, Early: 0, Misses: 0
177-> Hits: 1, Late: 0, Early: 0, Misses: 0
178-> Hits: 361, Late: 67, Early: 0, Misses: 3
179-> Hits: 20, Late: 0, Early: 0, Misses: 0
17a-> Hits: 1388, Late: 0, Early: 0, Misses: 0
17c-> Hits: 3918, Late: 0, Early: 0, Misses: 0
17d-> Hits: 5767, Late: 0, Early: 0, Misses: 0
17f-> Hits: 6725, Late: 0, Early: 0, Misses: 0
181-> Hits: 1108, Late: 0, Early: 0, Misses: 0
182-> Hits: 134, Late: 87, Early: 0, Misses: 20
184-> Hits: 740, Late: 0, Early: 0, Misses: 0
185-> Hits: 1038, Late: 0, Early: 0, Misses: 0
186-> Hits: 114, Late: 0, Early: 0, Misses: 0
187-> Hits: 1096, Late: 0, Early: 0, Misses: 0
189-> Hits: 3274, Late: 593, Early: 0, Misses: 0
18a-> Hits: 153, Late: 0, Early: 0, Misses: 0
18b-> Hits: 873, Late: 1, Early: 0, Misses: 0
18d-> Hits: 204, Late: 0, Early: 0, Misses: 0
18e-> Hits: 233, Late: 0, Early: 0, Misses: 0
18f-> Hits: 2266, Late: 364, Early: 0, Misses: 1
190-> Hits: 1329, Late: 0, Early: 0, Misses: 0
193-> Hits: 4, Late: 0, Early: 0, Misses: 0
198-> Hits: 250, Late: 27, Early: 0, Misses: 0
19c-> Hits: 1970, Late: 377, Early: 0, Misses: 7
1a4-> Hits: 232, Late: 0, Early: 0, Misses: 0
1a7-> Hits: 233, Late: 0, Early: 0, Misses: 0
1aa-> Hits: 2996, Late: 504, Early: 0, Misses: 0
1ab-> Hits: 10, Late: 222, Early: 0, Misses: 0
1ad-> Hits: 2231, Late: 442, Early: 0, Misses: 25
1ae-> Hits: 2730, Late: 555, Early: 0, Misses: 1
1bb-> Hits: 580, Late: 15, Early: 0, Misses: 0
1c0-> Hits: 165, Late: 3, Early: 0, Misses: 0
1c2-> Hits: 1984, Late: 0, Early: 0, Misses: 0
1c3-> Hits: 1325, Late: 0, Early: 0, Misses: 0
1c4-> Hits: 1336, Late: 0, Early: 0, Misses: 0
1c5-> Hits: 2574, Late: 297, Early: 0, Misses: 0
1c7-> Hits: 464, Late: 0, Early: 0, Misses: 0
1c9-> Hits: 709, Late: 143, Early: 0, Misses: 2
1ca-> Hits: 12, Late: 0, Early: 0, Misses: 0
1cb-> Hits: 589, Late: 0, Early: 0, Misses: 0
1cc-> Hits: 2956, Late: 20, Early: 0, Misses: 0
1cd-> Hits: 668, Late: 0, Early: 0, Misses: 0
1cf-> Hits: 1220, Late: 5, Early: 0, Misses: 0
1d0-> Hits: 2991, Late: 149, Early: 0, Misses: 0
1d1-> Hits: 734, Late: 232, Early: 0, Misses: 0
1d4-> Hits: 3494, Late: 3, Early: 0, Misses: 3
1d7-> Hits: 24, Late: 0, Early: 0, Misses: 0
1e0-> Hits: 464, Late: 0, Early: 0, Misses: 0
1e3-> Hits: 9, Late: 0, Early: 0, Misses: 0
1e9-> Hits: 10489, Late: 0, Early: 0, Misses: 0
1ea-> Hits: 10494, Late: 0, Early: 0, Misses: 0
1f0-> Hits: 3124, Late: 0, Early: 0, Misses: 0
1f1-> Hits: 20, Late: 0, Early: 0, Misses: 0
1f5-> Hits: 536, Late: 21, Early: 0, Misses: 130
200-> Hits: 28, Late: 1, Early: 0, Misses: 0
202-> Hits: 3234, Late: 818, Early: 0, Misses: 5
203-> Hits: 4, Late: 0, Early: 0, Misses: 0
207-> Hits: 2435, Late: 0, Early: 0, Misses: 0
20e-> Hits: 2328, Late: 0, Early: 0, Misses: 0
210-> Hits: 843, Late: 2, Early: 0, Misses: 0
214-> Hits: 734, Late: 0, Early: 0, Misses: 0
215-> Hits: 2561, Late: 0, Early: 0, Misses: 0
218-> Hits: 692, Late: 200, Early: 0, Misses: 0
219-> Hits: 0, Late: 4, Early: 0, Misses: 0
21c-> Hits: 333, Late: 558, Early: 0, Misses: 0
21d-> Hits: 951, Late: 0, Early: 0, Misses: 0
220-> Hits: 1018, Late: 106, Early: 0, Misses: 0
223-> Hits: 9, Late: 0, Early: 0, Misses: 0
224-> Hits: 609, Late: 722, Early: 0, Misses: 8
225-> Hits: 0, Late: 4, Early: 0, Misses: 0
22b-> Hits: 424, Late: 152, Early: 0, Misses: 1
22f-> Hits: 1365, Late: 0, Early: 0, Misses: 0
230-> Hits: 429, Late: 0, Early: 0, Misses: 0
232-> Hits: 559, Late: 0, Early: 0, Misses: 0
235-> Hits: 2272, Late: 1, Early: 0, Misses: 0
236-> Hits: 1108, Late: 0, Early: 0, Misses: 0
23b-> Hits: 11, Late: 0, Early: 0, Misses: 0
23c-> Hits: 4184, Late: 0, Early: 0, Misses: 0
23d-> Hits: 1727, Late: 0, Early: 0, Misses: 0
23f-> Hits: 2324, Late: 0, Early: 0, Misses: 0
240-> Hits: 913, Late: 0, Early: 0, Misses: 0
241-> Hits: 2213, Late: 0, Early: 0, Misses: 0
242-> Hits: 13194, Late: 1250, Early: 0, Misses: 4
243-> Hits: 1108, Late: 0, Early: 0, Misses: 0
244-> Hits: 10, Late: 0, Early: 0, Misses: 0
245-> Hits: 4090, Late: 0, Early: 0, Misses: 1
246-> Hits: 1108, Late: 0, Early: 0, Misses: 0
247-> Hits: 179, Late: 0, Early: 0, Misses: 0
249-> Hits: 9, Late: 223, Early: 0, Misses: 0
24b-> Hits: 419, Late: 0, Early: 0, Misses: 0
24e-> Hits: 2095, Late: 0, Early: 0, Misses: 0
250-> Hits: 10943, Late: 491, Early: 0, Misses: 51
251-> Hits: 4, Late: 0, Early: 0, Misses: 0
252-> Hits: 4, Late: 0, Early: 0, Misses: 0
253-> Hits: 227, Late: 0, Early: 0, Misses: 0
254-> Hits: 1085, Late: 64, Early: 0, Misses: 0
255-> Hits: 17961, Late: 938, Early: 0, Misses: 104
256-> Hits: 233, Late: 0, Early: 0, Misses: 0
257-> Hits: 1566, Late: 0, Early: 0, Misses: 0
25b-> Hits: 1105, Late: 1, Early: 0, Misses: 2
25d-> Hits: 6931, Late: 178, Early: 0, Misses: 96
25e-> Hits: 729, Late: 0, Early: 0, Misses: 0
25f-> Hits: 745, Late: 0, Early: 0, Misses: 0
261-> Hits: 19449, Late: 694, Early: 0, Misses: 36
265-> Hits: 18855, Late: 1409, Early: 0, Misses: 183
267-> Hits: 1999, Late: 28, Early: 0, Misses: 0
269-> Hits: 202, Late: 0, Early: 0, Misses: 0
26e-> Hits: 9748, Late: 613, Early: 0, Misses: 24
270-> Hits: 3, Late: 0, Early: 0, Misses: 0
272-> Hits: 18689, Late: 1113, Early: 0, Misses: 119
273-> Hits: 919, Late: 0, Early: 0, Misses: 0
275-> Hits: 1883, Late: 164, Early: 0, Misses: 0
277-> Hits: 1011, Late: 0, Early: 0, Misses: 0
279-> Hits: 20, Late: 0, Early: 0, Misses: 0
27b-> Hits: 2500, Late: 239, Early: 0, Misses: 4
280-> Hits: 2485, Late: 1, Early: 0, Misses: 0
281-> Hits: 857, Late: 229, Early: 0, Misses: 22
283-> Hits: 8012, Late: 141, Early: 0, Misses: 2
287-> Hits: 1, Late: 0, Early: 0, Misses: 0
288-> Hits: 19249, Late: 658, Early: 0, Misses: 193
289-> Hits: 220, Late: 0, Early: 0, Misses: 0
28a-> Hits: 723, Late: 0, Early: 0, Misses: 0
28b-> Hits: 4, Late: 131, Early: 0, Misses: 0
28c-> Hits: 330, Late: 0, Early: 0, Misses: 0
28d-> Hits: 427, Late: 0, Early: 0, Misses: 0
28e-> Hits: 340, Late: 0, Early: 0, Misses: 0
28f-> Hits: 1107, Late: 0, Early: 0, Misses: 1
290-> Hits: 376, Late: 0, Early: 0, Misses: 0
292-> Hits: 415, Late: 0, Early: 0, Misses: 0
293-> Hits: 415, Late: 0, Early: 0, Misses: 0
297-> Hits: 529, Late: 2, Early: 0, Misses: 0
29b-> Hits: 3236, Late: 1, Early: 0, Misses: 0
2a0-> Hits: 4140, Late: 0, Early: 0, Misses: 0
2a1-> Hits: 232, Late: 0, Early: 0, Misses: 0
2a6-> Hits: 11105, Late: 0, Early: 0, Misses: 0
2a7-> Hits: 12367, Late: 0, Early: 0, Misses: 0
2a9-> Hits: 13123, Late: 0, Early: 0, Misses: 0
2ab-> Hits: 18954, Late: 0, Early: 0, Misses: 0
2ac-> Hits: 1967, Late: 0, Early: 0, Misses: 0
2ad-> Hits: 19192, Late: 0, Early: 0, Misses: 0
2ae-> Hits: 232, Late: 0, Early: 0, Misses: 0
2af-> Hits: 18961, Late: 0, Early: 0, Misses: 0
2b0-> Hits: 18975, Late: 0, Early: 0, Misses: 0
2b2-> Hits: 318, Late: 0, Early: 0, Misses: 0
2b3-> Hits: 1108, Late: 0, Early: 0, Misses: 0
2b4-> Hits: 1003, Late: 49, Early: 0, Misses: 56
2b6-> Hits: 191, Late: 0, Early: 0, Misses: 0
2b8-> Hits: 440, Late: 0, Early: 0, Misses: 0
2b9-> Hits: 2395, Late: 0, Early: 0, Misses: 0
2bb-> Hits: 2659, Late: 0, Early: 0, Misses: 0
2bc-> Hits: 7, Late: 0, Early: 0, Misses: 0
2bd-> Hits: 3217, Late: 0, Early: 0, Misses: 0
2be-> Hits: 2492, Late: 0, Early: 0, Misses: 0
2bf-> Hits: 1809, Late: 181, Early: 0, Misses: 36
2c2-> Hits: 1797, Late: 229, Early: 0, Misses: 0
2c6-> Hits: 116, Late: 0, Early: 0, Misses: 0
2cc-> Hits: 2026, Late: 0, Early: 0, Misses: 0
2d5-> Hits: 643, Late: 0, Early: 0, Misses: 0
2d9-> Hits: 120, Late: 0, Early: 0, Misses: 0
2da-> Hits: 887, Late: 0, Early: 0, Misses: 0
2dc-> Hits: 1108, Late: 0, Early: 0, Misses: 0
2de-> Hits: 195, Late: 0, Early: 0, Misses: 0
2e0-> Hits: 961, Late: 216, Early: 0, Misses: 5
2e1-> Hits: 232, Late: 0, Early: 0, Misses: 0
2e2-> Hits: 1108, Late: 0, Early: 0, Misses: 0
2e3-> Hits: 1107, Late: 0, Early: 0, Misses: 1
2e6-> Hits: 1108, Late: 0, Early: 0, Misses: 0
2e8-> Hits: 232, Late: 0, Early: 0, Misses: 0
2e9-> Hits: 893, Late: 0, Early: 0, Misses: 0
2ec-> Hits: 3, Late: 0, Early: 0, Misses: 0
2ed-> Hits: 895, Late: 0, Early: 0, Misses: 5
2f0-> Hits: 2000, Late: 290, Early: 0, Misses: 0
2f1-> Hits: 1108, Late: 0, Early: 0, Misses: 0
2f6-> Hits: 172, Late: 0, Early: 0, Misses: 0
2f7-> Hits: 178, Late: 0, Early: 0, Misses: 0
2f9-> Hits: 1059, Late: 0, Early: 0, Misses: 0
2fb-> Hits: 1301, Late: 1, Early: 0, Misses: 0
2fd-> Hits: 1299, Late: 0, Early: 0, Misses: 0
2fe-> Hits: 739, Late: 361, Early: 0, Misses: 8
301-> Hits: 28, Late: 254, Early: 0, Misses: 0
304-> Hits: 62, Late: 218, Early: 0, Misses: 0
308-> Hits: 929, Late: 0, Early: 0, Misses: 0
309-> Hits: 1108, Late: 0, Early: 0, Misses: 0
30a-> Hits: 6033, Late: 252, Early: 0, Misses: 0
310-> Hits: 4656, Late: 163, Early: 0, Misses: 41
311-> Hits: 1589, Late: 1, Early: 0, Misses: 0
314-> Hits: 1944, Late: 43, Early: 0, Misses: 44
318-> Hits: 1108, Late: 0, Early: 0, Misses: 0
319-> Hits: 260, Late: 20, Early: 0, Misses: 0
31a-> Hits: 929, Late: 0, Early: 0, Misses: 0
31b-> Hits: 1788, Late: 243, Early: 0, Misses: 0
31e-> Hits: 3134, Late: 0, Early: 0, Misses: 0
31f-> Hits: 1107, Late: 0, Early: 0, Misses: 1
320-> Hits: 1, Late: 3, Early: 0, Misses: 0
325-> Hits: 190, Late: 42, Early: 0, Misses: 0
326-> Hits: 3325, Late: 45, Early: 0, Misses: 1
327-> Hits: 0, Late: 3, Early: 0, Misses: 0
32a-> Hits: 396, Late: 0, Early: 0, Misses: 0
32b-> Hits: 3134, Late: 0, Early: 0, Misses: 0
32c-> Hits: 2026, Late: 0, Early: 0, Misses: 0
32d-> Hits: 47409, Late: 460, Early: 0, Misses: 0
32e-> Hits: 2153, Late: 0, Early: 0, Misses: 0
330-> Hits: 20967, Late: 8, Early: 0, Misses: 0
332-> Hits: 2026, Late: 0, Early: 0, Misses: 0
333-> Hits: 2296, Late: 0, Early: 0, Misses: 0
334-> Hits: 2026, Late: 0, Early: 0, Misses: 0
335-> Hits: 2026, Late: 0, Early: 0, Misses: 0
337-> Hits: 1972, Late: 11, Early: 0, Misses: 0
33a-> Hits: 10849, Late: 61, Early: 0, Misses: 0
33b-> Hits: 394, Late: 0, Early: 0, Misses: 0
33e-> Hits: 929, Late: 0, Early: 0, Misses: 0
33f-> Hits: 882, Late: 224, Early: 0, Misses: 2
340-> Hits: 156, Late: 1, Early: 0, Misses: 0
342-> Hits: 929, Late: 0, Early: 0, Misses: 0
345-> Hits: 929, Late: 0, Early: 0, Misses: 0
346-> Hits: 5545, Late: 217, Early: 0, Misses: 4
347-> Hits: 895, Late: 141, Early: 0, Misses: 1
348-> Hits: 1107, Late: 1, Early: 0, Misses: 0
350-> Hits: 18430, Late: 69, Early: 0, Misses: 2
351-> Hits: 1043, Late: 0, Early: 0, Misses: 0
353-> Hits: 1809, Late: 0, Early: 0, Misses: 0
355-> Hits: 29216, Late: 228, Early: 0, Misses: 0
356-> Hits: 1827, Late: 209, Early: 0, Misses: 1
357-> Hits: 932, Late: 170, Early: 0, Misses: 5
358-> Hits: 883, Late: 225, Early: 0, Misses: 0
359-> Hits: 3099, Late: 1, Early: 0, Misses: 0
35a-> Hits: 5713, Late: 1, Early: 0, Misses: 3
35c-> Hits: 894, Late: 218, Early: 0, Misses: 0
35d-> Hits: 3222, Late: 2038, Early: 0, Misses: 15
35e-> Hits: 251, Late: 20, Early: 0, Misses: 11
35f-> Hits: 546, Late: 0, Early: 0, Misses: 0
360-> Hits: 676, Late: 0, Early: 0, Misses: 0
362-> Hits: 702, Late: 0, Early: 0, Misses: 0
363-> Hits: 1797, Late: 219, Early: 0, Misses: 2
367-> Hits: 236, Late: 15, Early: 0, Misses: 0
36b-> Hits: 22422, Late: 0, Early: 0, Misses: 0
36c-> Hits: 35, Late: 0, Early: 0, Misses: 0
370-> Hits: 702, Late: 0, Early: 0, Misses: 0
372-> Hits: 116, Late: 0, Early: 0, Misses: 0
375-> Hits: 28214, Late: 1378, Early: 0, Misses: 0
376-> Hits: 472, Late: 636, Early: 0, Misses: 0
377-> Hits: 38988, Late: 0, Early: 0, Misses: 0
37e-> Hits: 34424, Late: 1274, Early: 0, Misses: 283
380-> Hits: 7, Late: 0, Early: 0, Misses: 0
381-> Hits: 749, Late: 359, Early: 0, Misses: 0
383-> Hits: 1108, Late: 0, Early: 0, Misses: 0
384-> Hits: 28891, Late: 455, Early: 0, Misses: 0
388-> Hits: 324, Late: 0, Early: 0, Misses: 0
389-> Hits: 1337, Late: 0, Early: 0, Misses: 0
38b-> Hits: 232, Late: 0, Early: 0, Misses: 0
38d-> Hits: 281, Late: 0, Early: 0, Misses: 0
38e-> Hits: 4497, Late: 8, Early: 0, Misses: 0
38f-> Hits: 113685, Late: 138, Early: 0, Misses: 0
391-> Hits: 329, Late: 0, Early: 0, Misses: 0
392-> Hits: 15, Late: 0, Early: 0, Misses: 0
395-> Hits: 882, Late: 221, Early: 0, Misses: 5
397-> Hits: 233, Late: 0, Early: 0, Misses: 0
398-> Hits: 5289, Late: 0, Early: 0, Misses: 0
399-> Hits: 1098, Late: 0, Early: 0, Misses: 0
39b-> Hits: 3566, Late: 1750, Early: 0, Misses: 108
39d-> Hits: 1081, Late: 1, Early: 0, Misses: 26
39f-> Hits: 458, Late: 13, Early: 0, Misses: 0
3a1-> Hits: 192, Late: 0, Early: 0, Misses: 0
3a4-> Hits: 3420, Late: 0, Early: 0, Misses: 0
3a5-> Hits: 2046, Late: 1, Early: 0, Misses: 0
3ab-> Hits: 143, Late: 0, Early: 0, Misses: 0
3ac-> Hits: 0, Late: 0, Early: 0, Misses: 7
3b0-> Hits: 1188, Late: 0, Early: 0, Misses: 0
3b1-> Hits: 1155, Late: 0, Early: 0, Misses: 0
3b5-> Hits: 31038, Late: 0, Early: 0, Misses: 0
3b6-> Hits: 2365, Late: 1, Early: 0, Misses: 0
3b7-> Hits: 859, Late: 0, Early: 0, Misses: 0
3b8-> Hits: 233, Late: 0, Early: 0, Misses: 0
3bc-> Hits: 245, Late: 1, Early: 0, Misses: 0
3bf-> Hits: 233, Late: 0, Early: 0, Misses: 0
3c0-> Hits: 25160, Late: 884, Early: 0, Misses: 4
3c2-> Hits: 65, Late: 0, Early: 0, Misses: 0
3c4-> Hits: 1108, Late: 0, Early: 0, Misses: 0
3c6-> Hits: 233, Late: 0, Early: 0, Misses: 0
3c7-> Hits: 49, Late: 0, Early: 0, Misses: 0
3cb-> Hits: 253, Late: 0, Early: 0, Misses: 0
3cc-> Hits: 3211, Late: 0, Early: 0, Misses: 0
3ce-> Hits: 233, Late: 0, Early: 0, Misses: 0
3cf-> Hits: 39, Late: 0, Early: 0, Misses: 0
3d0-> Hits: 2412, Late: 0, Early: 0, Misses: 0
3d2-> Hits: 2164, Late: 2, Early: 0, Misses: 0
3d3-> Hits: 504, Late: 8, Early: 0, Misses: 0
3d6-> Hits: 576, Late: 0, Early: 0, Misses: 0
3d7-> Hits: 1507, Late: 36, Early: 0, Misses: 0
3d9-> Hits: 830, Late: 0, Early: 0, Misses: 0
3e0-> Hits: 4923, Late: 32, Early: 0, Misses: 0
3e1-> Hits: 167, Late: 0, Early: 0, Misses: 0
3e2-> Hits: 232, Late: 0, Early: 0, Misses: 0
3e3-> Hits: 1137, Late: 13, Early: 0, Misses: 0
3e4-> Hits: 188, Late: 44, Early: 0, Misses: 0
3e6-> Hits: 0, Late: 49, Early: 0, Misses: 0
3e7-> Hits: 417, Late: 47, Early: 0, Misses: 0
3e8-> Hits: 1134, Late: 1, Early: 0, Misses: 0
3ea-> Hits: 2263, Late: 0, Early: 0, Misses: 2
3eb-> Hits: 4349, Late: 0, Early: 0, Misses: 0
3ee-> Hits: 112, Late: 43, Early: 0, Misses: 3
3ef-> Hits: 106, Late: 208, Early: 0, Misses: 3
3f0-> Hits: 939, Late: 0, Early: 0, Misses: 0
3f1-> Hits: 826, Late: 0, Early: 0, Misses: 0
3f5-> Hits: 32, Late: 3, Early: 0, Misses: 0
3f9-> Hits: 1276, Late: 0, Early: 0, Misses: 0
3fa-> Hits: 131, Late: 101, Early: 0, Misses: 0
3fb-> Hits: 49, Late: 0, Early: 0, Misses: 0
3fd-> Hits: 41, Late: 147, Early: 0, Misses: 2
3ff-> Hits: 29, Late: 0, Early: 0, Misses: 0
400-> Hits: 119, Late: 0, Early: 0, Misses: 0
402-> Hits: 135, Late: 37, Early: 0, Misses: 1
404-> Hits: 1107, Late: 0, Early: 0, Misses: 0
406-> Hits: 697, Late: 180, Early: 0, Misses: 0
409-> Hits: 11, Late: 0, Early: 0, Misses: 0
40d-> Hits: 205, Late: 9, Early: 0, Misses: 0
40f-> Hits: 156, Late: 71, Early: 0, Misses: 5
410-> Hits: 1232, Late: 3, Early: 0, Misses: 0
411-> Hits: 24, Late: 0, Early: 0, Misses: 0
412-> Hits: 126, Late: 0, Early: 0, Misses: 0
413-> Hits: 20, Late: 165, Early: 0, Misses: 0
414-> Hits: 1108, Late: 0, Early: 0, Misses: 0
417-> Hits: 232, Late: 0, Early: 0, Misses: 0
418-> Hits: 1782, Late: 0, Early: 0, Misses: 0
41a-> Hits: 232, Late: 0, Early: 0, Misses: 0
41b-> Hits: 486, Late: 0, Early: 0, Misses: 0
41c-> Hits: 589, Late: 0, Early: 0, Misses: 0
41e-> Hits: 184, Late: 0, Early: 0, Misses: 0
420-> Hits: 869, Late: 6, Early: 0, Misses: 0
423-> Hits: 232, Late: 0, Early: 0, Misses: 0
425-> Hits: 2222, Late: 166, Early: 0, Misses: 0
428-> Hits: 232, Late: 0, Early: 0, Misses: 0
42a-> Hits: 278, Late: 2, Early: 0, Misses: 0
42b-> Hits: 49, Late: 0, Early: 0, Misses: 0
42c-> Hits: 19, Late: 165, Early: 0, Misses: 0
42d-> Hits: 49, Late: 0, Early: 0, Misses: 0
42f-> Hits: 49, Late: 0, Early: 0, Misses: 0
431-> Hits: 49, Late: 0, Early: 0, Misses: 0
432-> Hits: 944, Late: 0, Early: 0, Misses: 0
433-> Hits: 49, Late: 0, Early: 0, Misses: 0
434-> Hits: 49, Late: 0, Early: 0, Misses: 0
436-> Hits: 9, Late: 0, Early: 0, Misses: 0
437-> Hits: 165, Late: 0, Early: 0, Misses: 0
439-> Hits: 2, Late: 0, Early: 0, Misses: 0
43a-> Hits: 232, Late: 0, Early: 0, Misses: 0
43d-> Hits: 251, Late: 165, Early: 0, Misses: 0
43f-> Hits: 1108, Late: 0, Early: 0, Misses: 0
442-> Hits: 6634, Late: 0, Early: 0, Misses: 0
443-> Hits: 1107, Late: 0, Early: 0, Misses: 0
444-> Hits: 232, Late: 0, Early: 0, Misses: 0
445-> Hits: 1118, Late: 138, Early: 0, Misses: 0
446-> Hits: 232, Late: 0, Early: 0, Misses: 0
447-> Hits: 232, Late: 0, Early: 0, Misses: 0
449-> Hits: 1196, Late: 0, Early: 0, Misses: 0
44a-> Hits: 875, Late: 0, Early: 0, Misses: 0
44d-> Hits: 730, Late: 0, Early: 0, Misses: 0
44e-> Hits: 15756, Late: 1814, Early: 0, Misses: 166
451-> Hits: 875, Late: 0, Early: 0, Misses: 0
454-> Hits: 224, Late: 0, Early: 0, Misses: 0
456-> Hits: 41, Late: 0, Early: 0, Misses: 0
458-> Hits: 19, Late: 0, Early: 0, Misses: 0
459-> Hits: 1954, Late: 94, Early: 0, Misses: 3
45a-> Hits: 747, Late: 0, Early: 0, Misses: 0
45e-> Hits: 115, Late: 0, Early: 0, Misses: 0
461-> Hits: 3767, Late: 173, Early: 0, Misses: 6
463-> Hits: 232, Late: 0, Early: 0, Misses: 0
464-> Hits: 69, Late: 0, Early: 0, Misses: 0
465-> Hits: 232, Late: 0, Early: 0, Misses: 0
467-> Hits: 1197, Late: 0, Early: 0, Misses: 0
468-> Hits: 1157, Late: 0, Early: 0, Misses: 0
469-> Hits: 2214, Late: 0, Early: 0, Misses: 0
46a-> Hits: 1108, Late: 0, Early: 0, Misses: 0
46b-> Hits: 1340, Late: 0, Early: 0, Misses: 0
46c-> Hits: 5019, Late: 30, Early: 0, Misses: 0
46d-> Hits: 2216, Late: 0, Early: 0, Misses: 0
46e-> Hits: 1178, Late: 0, Early: 0, Misses: 0
46f-> Hits: 2220, Late: 0, Early: 0, Misses: 0
470-> Hits: 280, Late: 0, Early: 0, Misses: 0
471-> Hits: 2216, Late: 0, Early: 0, Misses: 0
472-> Hits: 2700, Late: 111, Early: 0, Misses: 1
473-> Hits: 812, Late: 0, Early: 0, Misses: 0
475-> Hits: 280, Late: 0, Early: 0, Misses: 0
476-> Hits: 567, Late: 66, Early: 0, Misses: 0
477-> Hits: 400, Late: 0, Early: 0, Misses: 0
479-> Hits: 161, Late: 0, Early: 0, Misses: 0
47a-> Hits: 184, Late: 48, Early: 0, Misses: 0
47c-> Hits: 280, Late: 0, Early: 0, Misses: 0
480-> Hits: 256, Late: 0, Early: 0, Misses: 0
483-> Hits: 512, Late: 0, Early: 0, Misses: 0
484-> Hits: 9789, Late: 0, Early: 0, Misses: 0
485-> Hits: 1474, Late: 84, Early: 0, Misses: 0
486-> Hits: 186, Late: 48, Early: 0, Misses: 0
488-> Hits: 9590, Late: 0, Early: 0, Misses: 0
489-> Hits: 280, Late: 0, Early: 0, Misses: 0
48a-> Hits: 117, Late: 0, Early: 0, Misses: 0
48c-> Hits: 747, Late: 0, Early: 0, Misses: 0
48d-> Hits: 1105, Late: 47, Early: 0, Misses: 2
490-> Hits: 67, Late: 0, Early: 0, Misses: 0
492-> Hits: 1885, Late: 0, Early: 0, Misses: 0
493-> Hits: 621, Late: 0, Early: 0, Misses: 0
494-> Hits: 755, Late: 0, Early: 0, Misses: 0
496-> Hits: 621, Late: 0, Early: 0, Misses: 0
498-> Hits: 238, Late: 42, Early: 0, Misses: 0
49a-> Hits: 282, Late: 0, Early: 0, Misses: 0
49b-> Hits: 275, Late: 1, Early: 0, Misses: 0
49c-> Hits: 233, Late: 0, Early: 0, Misses: 0
49e-> Hits: 515, Late: 0, Early: 0, Misses: 0
4a0-> Hits: 390, Late: 0, Early: 0, Misses: 0
4a1-> Hits: 282, Late: 0, Early: 0, Misses: 0
4a2-> Hits: 233, Late: 0, Early: 0, Misses: 0
4a3-> Hits: 1517, Late: 1, Early: 0, Misses: 0
4a6-> Hits: 304, Late: 5, Early: 0, Misses: 0
4a7-> Hits: 747, Late: 0, Early: 0, Misses: 0
4a9-> Hits: 144, Late: 0, Early: 0, Misses: 0
4aa-> Hits: 1341, Late: 0, Early: 0, Misses: 0
4ac-> Hits: 282, Late: 0, Early: 0, Misses: 0
4ad-> Hits: 511, Late: 0, Early: 0, Misses: 0
4ae-> Hits: 811, Late: 0, Early: 0, Misses: 0
4af-> Hits: 515, Late: 0, Early: 0, Misses: 0
4b0-> Hits: 494, Late: 33, Early: 0, Misses: 0
4b1-> Hits: 1029, Late: 0, Early: 0, Misses: 0
4b3-> Hits: 341, Late: 0, Early: 0, Misses: 0
4b4-> Hits: 514, Late: 47, Early: 0, Misses: 0
4b5-> Hits: 282, Late: 0, Early: 0, Misses: 0
4b6-> Hits: 331, Late: 0, Early: 0, Misses: 0
4b8-> Hits: 1155, Late: 0, Early: 0, Misses: 1
4ba-> Hits: 49, Late: 0, Early: 0, Misses: 0
4bb-> Hits: 1107, Late: 0, Early: 0, Misses: 0
4bc-> Hits: 49, Late: 0, Early: 0, Misses: 0
4bf-> Hits: 955, Late: 9, Early: 0, Misses: 0
4c1-> Hits: 139, Late: 0, Early: 0, Misses: 0
4c2-> Hits: 232, Late: 0, Early: 0, Misses: 0
4c7-> Hits: 682, Late: 0, Early: 0, Misses: 1
4c9-> Hits: 280, Late: 0, Early: 0, Misses: 0
4cb-> Hits: 23121, Late: 214, Early: 0, Misses: 0
4cf-> Hits: 232, Late: 0, Early: 0, Misses: 0
4d0-> Hits: 280, Late: 0, Early: 0, Misses: 0
4d1-> Hits: 126629, Late: 247342, Early: 0, Misses: 63
4d2-> Hits: 630, Late: 9, Early: 0, Misses: 2
4d3-> Hits: 373, Late: 0, Early: 0, Misses: 0
4d4-> Hits: 920, Late: 0, Early: 0, Misses: 0
4d5-> Hits: 233, Late: 0, Early: 0, Misses: 0
4d7-> Hits: 233, Late: 0, Early: 0, Misses: 0
4d8-> Hits: 246, Late: 190, Early: 0, Misses: 1
4d9-> Hits: 233, Late: 0, Early: 0, Misses: 0
4db-> Hits: 698, Late: 0, Early: 0, Misses: 0
4dc-> Hits: 915, Late: 0, Early: 0, Misses: 1
4df-> Hits: 100, Late: 0, Early: 0, Misses: 0
4e0-> Hits: 636017, Late: 117993, Early: 0, Misses: 2
4e1-> Hits: 232, Late: 0, Early: 0, Misses: 0
4e4-> Hits: 145, Late: 2, Early: 0, Misses: 0
4e8-> Hits: 2438, Late: 404, Early: 0, Misses: 1
4e9-> Hits: 47, Late: 0, Early: 0, Misses: 0
4ea-> Hits: 62, Late: 0, Early: 0, Misses: 0
4ef-> Hits: 2816, Late: 76, Early: 0, Misses: 0
4f0-> Hits: 1108, Late: 3, Early: 0, Misses: 0
4f1-> Hits: 1108, Late: 0, Early: 0, Misses: 0
4f2-> Hits: 683, Late: 0, Early: 0, Misses: 0
4f3-> Hits: 1108, Late: 0, Early: 0, Misses: 0
4f4-> Hits: 50, Late: 0, Early: 0, Misses: 0
4f5-> Hits: 1108, Late: 0, Early: 0, Misses: 0
4f7-> Hits: 374941, Late: 0, Early: 0, Misses: 0
4f8-> Hits: 1108, Late: 0, Early: 0, Misses: 0
4f9-> Hits: 1573, Late: 0, Early: 0, Misses: 0
4fd-> Hits: 5, Late: 0, Early: 0, Misses: 0
4fe-> Hits: 1322, Late: 0, Early: 0, Misses: 0
502-> Hits: 3685, Late: 34, Early: 0, Misses: 0
508-> Hits: 18309, Late: 0, Early: 0, Misses: 0
509-> Hits: 18178, Late: 199, Early: 0, Misses: 0
50b-> Hits: 18392, Late: 0, Early: 0, Misses: 0
50d-> Hits: 17738, Late: 0, Early: 0, Misses: 0
50e-> Hits: 497, Late: 0, Early: 0, Misses: 0
50f-> Hits: 18326, Late: 0, Early: 0, Misses: 0
510-> Hits: 1075172, Late: 0, Early: 0, Misses: 0
511-> Hits: 18235, Late: 0, Early: 0, Misses: 0
512-> Hits: 17738, Late: 0, Early: 0, Misses: 0
516-> Hits: 1, Late: 0, Early: 0, Misses: 0
517-> Hits: 3250, Late: 0, Early: 0, Misses: 0
51e-> Hits: 683, Late: 0, Early: 0, Misses: 0
51f-> Hits: 3625, Late: 0, Early: 0, Misses: 0
520-> Hits: 747, Late: 0, Early: 0, Misses: 0
521-> Hits: 747, Late: 0, Early: 0, Misses: 0
523-> Hits: 747, Late: 3, Early: 0, Misses: 0
525-> Hits: 837, Late: 0, Early: 0, Misses: 0
526-> Hits: 838, Late: 0, Early: 0, Misses: 0
527-> Hits: 91, Late: 0, Early: 0, Misses: 0
529-> Hits: 97, Late: 0, Early: 0, Misses: 0
52a-> Hits: 2594, Late: 0, Early: 0, Misses: 0
52b-> Hits: 97, Late: 0, Early: 0, Misses: 0
52d-> Hits: 97, Late: 0, Early: 0, Misses: 0
52f-> Hits: 97, Late: 0, Early: 0, Misses: 0
531-> Hits: 218, Late: 0, Early: 0, Misses: 0
534-> Hits: 364, Late: 0, Early: 0, Misses: 0
53a-> Hits: 233, Late: 0, Early: 0, Misses: 0
540-> Hits: 42, Late: 0, Early: 0, Misses: 0
548-> Hits: 48, Late: 0, Early: 0, Misses: 0
54b-> Hits: 23, Late: 0, Early: 0, Misses: 0
54d-> Hits: 2322, Late: 0, Early: 0, Misses: 0
552-> Hits: 881, Late: 70, Early: 0, Misses: 0
558-> Hits: 1107, Late: 0, Early: 0, Misses: 0
55b-> Hits: 875, Late: 54, Early: 0, Misses: 0
564-> Hits: 995, Late: 45, Early: 0, Misses: 0
565-> Hits: 270, Late: 0, Early: 0, Misses: 0
567-> Hits: 1284, Late: 0, Early: 0, Misses: 0
568-> Hits: 1100, Late: 7, Early: 0, Misses: 0
569-> Hits: 17360, Late: 169, Early: 0, Misses: 183
56b-> Hits: 33, Late: 0, Early: 0, Misses: 0
570-> Hits: 954, Late: 0, Early: 0, Misses: 0
572-> Hits: 17627, Late: 0, Early: 0, Misses: 0
574-> Hits: 105, Late: 0, Early: 0, Misses: 0
576-> Hits: 34, Late: 0, Early: 0, Misses: 0
578-> Hits: 1119, Late: 48, Early: 0, Misses: 0
579-> Hits: 561, Late: 0, Early: 0, Misses: 0
57b-> Hits: 4597, Late: 297, Early: 0, Misses: 1
57d-> Hits: 715, Late: 0, Early: 0, Misses: 0
57e-> Hits: 143, Late: 0, Early: 0, Misses: 0
57f-> Hits: 751, Late: 172, Early: 0, Misses: 0
581-> Hits: 760, Late: 0, Early: 0, Misses: 0
582-> Hits: 1, Late: 0, Early: 0, Misses: 0
586-> Hits: 10, Late: 222, Early: 0, Misses: 0
587-> Hits: 826, Late: 0, Early: 0, Misses: 0
588-> Hits: 1094, Late: 0, Early: 0, Misses: 0
589-> Hits: 9, Late: 175, Early: 0, Misses: 0
58a-> Hits: 1242, Late: 0, Early: 0, Misses: 0
58b-> Hits: 806, Late: 95, Early: 0, Misses: 0
58c-> Hits: 1107, Late: 0, Early: 0, Misses: 0
58d-> Hits: 557, Late: 0, Early: 0, Misses: 0
590-> Hits: 518, Late: 55, Early: 0, Misses: 1
591-> Hits: 781, Late: 147, Early: 0, Misses: 1
593-> Hits: 17480, Late: 0, Early: 0, Misses: 0
594-> Hits: 22282, Late: 240, Early: 0, Misses: 8
597-> Hits: 123, Late: 1, Early: 0, Misses: 0
598-> Hits: 857, Late: 27, Early: 0, Misses: 1
599-> Hits: 45, Late: 0, Early: 0, Misses: 0
59a-> Hits: 3913, Late: 261, Early: 0, Misses: 0
59b-> Hits: 0, Late: 280, Early: 0, Misses: 0
59e-> Hits: 233, Late: 0, Early: 0, Misses: 0
59f-> Hits: 128, Late: 0, Early: 0, Misses: 0
5a0-> Hits: 282, Late: 0, Early: 0, Misses: 0
5a5-> Hits: 172, Late: 0, Early: 0, Misses: 0
5a6-> Hits: 237, Late: 0, Early: 0, Misses: 0
5a8-> Hits: 233, Late: 0, Early: 0, Misses: 0
5a9-> Hits: 3939, Late: 235, Early: 0, Misses: 0
5aa-> Hits: 603, Late: 449, Early: 0, Misses: 0
5ad-> Hits: 494, Late: 1, Early: 0, Misses: 0
5b0-> Hits: 3043, Late: 596, Early: 0, Misses: 12
5b1-> Hits: 200, Late: 109, Early: 0, Misses: 6
5b4-> Hits: 174, Late: 0, Early: 0, Misses: 0
5b5-> Hits: 3394, Late: 393, Early: 0, Misses: 0
5b6-> Hits: 5, Late: 0, Early: 0, Misses: 2
5b7-> Hits: 30, Late: 2, Early: 0, Misses: 0
5bc-> Hits: 136, Late: 0, Early: 0, Misses: 0
5be-> Hits: 2, Late: 0, Early: 0, Misses: 0
5c0-> Hits: 4069, Late: 0, Early: 0, Misses: 0
5c1-> Hits: 88, Late: 31, Early: 0, Misses: 1
5c2-> Hits: 11426, Late: 293, Early: 0, Misses: 0
5c4-> Hits: 374064, Late: 1, Early: 0, Misses: 0
5c5-> Hits: 184, Late: 0, Early: 0, Misses: 0
5c6-> Hits: 65, Late: 0, Early: 0, Misses: 0
5c7-> Hits: 378521, Late: 115, Early: 0, Misses: 26
5c8-> Hits: 233, Late: 0, Early: 0, Misses: 0
5ca-> Hits: 621, Late: 0, Early: 0, Misses: 0
5cb-> Hits: 1, Late: 0, Early: 0, Misses: 0
5cd-> Hits: 621, Late: 0, Early: 0, Misses: 0
5ce-> Hits: 551, Late: 0, Early: 0, Misses: 0
5cf-> Hits: 6914, Late: 393, Early: 0, Misses: 5
5d0-> Hits: 43, Late: 0, Early: 0, Misses: 0
5d4-> Hits: 375180, Late: 1, Early: 0, Misses: 0
5d5-> Hits: 1432, Late: 0, Early: 0, Misses: 0
5d6-> Hits: 487, Late: 0, Early: 0, Misses: 0
5d7-> Hits: 2189, Late: 76, Early: 0, Misses: 1
5d9-> Hits: 238, Late: 0, Early: 0, Misses: 2
5da-> Hits: 310, Late: 0, Early: 0, Misses: 0
5db-> Hits: 267, Late: 2, Early: 0, Misses: 0
5dc-> Hits: 375176, Late: 0, Early: 0, Misses: 0
5dd-> Hits: 374119, Late: 103, Early: 0, Misses: 0
5de-> Hits: 887, Late: 0, Early: 0, Misses: 0
5e0-> Hits: 1399, Late: 0, Early: 0, Misses: 0
5e3-> Hits: 621, Late: 0, Early: 0, Misses: 0
5e5-> Hits: 241, Late: 0, Early: 0, Misses: 0
5e8-> Hits: 51, Late: 1, Early: 0, Misses: 181
5ea-> Hits: 8205, Late: 138, Early: 0, Misses: 0
5eb-> Hits: 18, Late: 0, Early: 0, Misses: 0
5ec-> Hits: 55, Late: 0, Early: 0, Misses: 0
5ee-> Hits: 2129, Late: 0, Early: 0, Misses: 1
5ef-> Hits: 184, Late: 0, Early: 0, Misses: 0
5f0-> Hits: 10301, Late: 116, Early: 0, Misses: 0
5f3-> Hits: 74, Late: 1, Early: 0, Misses: 0
5f4-> Hits: 1103, Late: 33, Early: 0, Misses: 0
5f5-> Hits: 1, Late: 0, Early: 0, Misses: 0
5f6-> Hits: 10, Late: 0, Early: 0, Misses: 0
5f7-> Hits: 910, Late: 231, Early: 0, Misses: 14
5fa-> Hits: 99, Late: 0, Early: 0, Misses: 0
5fc-> Hits: 9, Late: 173, Early: 0, Misses: 2
5fe-> Hits: 892, Late: 252, Early: 0, Misses: 0
602-> Hits: 1981, Late: 142, Early: 0, Misses: 0
603-> Hits: 77, Late: 2, Early: 0, Misses: 75
604-> Hits: 851, Late: 51, Early: 0, Misses: 0
605-> Hits: 638, Late: 0, Early: 0, Misses: 0
606-> Hits: 1637, Late: 11, Early: 0, Misses: 0
607-> Hits: 4953, Late: 39, Early: 0, Misses: 4
608-> Hits: 180, Late: 0, Early: 0, Misses: 0
609-> Hits: 1223, Late: 92, Early: 0, Misses: 0
60a-> Hits: 1, Late: 0, Early: 0, Misses: 0
60b-> Hits: 383, Late: 0, Early: 0, Misses: 0
60e-> Hits: 280, Late: 0, Early: 0, Misses: 0
60f-> Hits: 8, Late: 0, Early: 0, Misses: 0
610-> Hits: 3345, Late: 50, Early: 0, Misses: 1
612-> Hits: 413, Late: 355, Early: 0, Misses: 0
614-> Hits: 5692, Late: 54, Early: 0, Misses: 0
615-> Hits: 880, Late: 0, Early: 0, Misses: 0
616-> Hits: 47, Late: 0, Early: 0, Misses: 0
617-> Hits: 882, Late: 230, Early: 0, Misses: 0
619-> Hits: 1274, Late: 374, Early: 0, Misses: 0
61b-> Hits: 880, Late: 0, Early: 0, Misses: 0
61c-> Hits: 2869, Late: 0, Early: 0, Misses: 0
61d-> Hits: 4056, Late: 0, Early: 0, Misses: 0
61e-> Hits: 880, Late: 0, Early: 0, Misses: 0
61f-> Hits: 3960, Late: 0, Early: 0, Misses: 0
621-> Hits: 824, Late: 0, Early: 0, Misses: 0
622-> Hits: 233, Late: 0, Early: 0, Misses: 0
624-> Hits: 280, Late: 0, Early: 0, Misses: 0
626-> Hits: 1091, Late: 0, Early: 0, Misses: 0
627-> Hits: 0, Late: 49, Early: 0, Misses: 0
628-> Hits: 56, Late: 223, Early: 0, Misses: 0
62c-> Hits: 73, Late: 1, Early: 0, Misses: 0
62d-> Hits: 154, Late: 0, Early: 0, Misses: 0
62e-> Hits: 184, Late: 0, Early: 0, Misses: 0
630-> Hits: 4, Late: 0, Early: 0, Misses: 0
632-> Hits: 621, Late: 0, Early: 0, Misses: 0
633-> Hits: 160, Late: 0, Early: 0, Misses: 0
634-> Hits: 26, Late: 0, Early: 0, Misses: 0
636-> Hits: 513, Late: 0, Early: 0, Misses: 0
637-> Hits: 159, Late: 5, Early: 0, Misses: 0
63a-> Hits: 2594, Late: 123, Early: 0, Misses: 3
63b-> Hits: 47, Late: 0, Early: 0, Misses: 0
63d-> Hits: 621, Late: 0, Early: 0, Misses: 0
63f-> Hits: 1745, Late: 192, Early: 0, Misses: 163
642-> Hits: 78, Late: 25, Early: 0, Misses: 0
643-> Hits: 29, Late: 0, Early: 0, Misses: 0
644-> Hits: 3653, Late: 191, Early: 0, Misses: 0
645-> Hits: 47, Late: 0, Early: 0, Misses: 0
646-> Hits: 711, Late: 1, Early: 0, Misses: 11
647-> Hits: 36, Late: 0, Early: 0, Misses: 0
648-> Hits: 474, Late: 32, Early: 0, Misses: 0
64a-> Hits: 335, Late: 26, Early: 0, Misses: 0
64b-> Hits: 261, Late: 0, Early: 0, Misses: 0
64c-> Hits: 1068, Late: 131, Early: 0, Misses: 0
64e-> Hits: 5742, Late: 201, Early: 0, Misses: 0
64f-> Hits: 174, Late: 1, Early: 0, Misses: 0
652-> Hits: 1905, Late: 1, Early: 0, Misses: 0
653-> Hits: 701, Late: 0, Early: 0, Misses: 0
654-> Hits: 1127, Late: 2, Early: 0, Misses: 0
657-> Hits: 1515, Late: 809, Early: 0, Misses: 0
658-> Hits: 3997, Late: 15, Early: 0, Misses: 0
659-> Hits: 3844, Late: 0, Early: 0, Misses: 0
65a-> Hits: 184, Late: 0, Early: 0, Misses: 0
65b-> Hits: 111, Late: 231, Early: 0, Misses: 0
65c-> Hits: 897, Late: 210, Early: 0, Misses: 0
65d-> Hits: 1723, Late: 415, Early: 0, Misses: 0
65e-> Hits: 173, Late: 1, Early: 0, Misses: 10
65f-> Hits: 1882, Late: 9, Early: 0, Misses: 0
660-> Hits: 651, Late: 356, Early: 0, Misses: 3
664-> Hits: 893, Late: 232, Early: 0, Misses: 0
665-> Hits: 182, Late: 1, Early: 0, Misses: 1
667-> Hits: 0, Late: 1, Early: 0, Misses: 0
669-> Hits: 2446, Late: 1501, Early: 0, Misses: 12
66a-> Hits: 3124, Late: 0, Early: 0, Misses: 0
66b-> Hits: 418, Late: 345, Early: 0, Misses: 2
66c-> Hits: 30, Late: 55, Early: 0, Misses: 1
66d-> Hits: 833, Late: 0, Early: 0, Misses: 0
66e-> Hits: 1091, Late: 0, Early: 0, Misses: 0
670-> Hits: 1217, Late: 2, Early: 0, Misses: 0
671-> Hits: 2901, Late: 0, Early: 0, Misses: 0
672-> Hits: 389, Late: 375, Early: 0, Misses: 1
673-> Hits: 3921, Late: 1, Early: 0, Misses: 0
674-> Hits: 3530, Late: 635, Early: 0, Misses: 9
676-> Hits: 184, Late: 0, Early: 0, Misses: 0
677-> Hits: 1107, Late: 0, Early: 0, Misses: 0
678-> Hits: 1975, Late: 27, Early: 0, Misses: 0
67a-> Hits: 1374, Late: 0, Early: 0, Misses: 0
67c-> Hits: 227, Late: 0, Early: 0, Misses: 0
67f-> Hits: 2285, Late: 167, Early: 0, Misses: 14
680-> Hits: 4148, Late: 83, Early: 0, Misses: 0
681-> Hits: 3131, Late: 133, Early: 0, Misses: 0
682-> Hits: 1644, Late: 16, Early: 0, Misses: 0
683-> Hits: 2910, Late: 0, Early: 0, Misses: 0
684-> Hits: 1608, Late: 335, Early: 0, Misses: 0
686-> Hits: 895, Late: 0, Early: 0, Misses: 0
687-> Hits: 896, Late: 0, Early: 0, Misses: 0
688-> Hits: 363, Late: 0, Early: 0, Misses: 0
689-> Hits: 1714, Late: 0, Early: 0, Misses: 0
68a-> Hits: 1269, Late: 1, Early: 0, Misses: 1
68d-> Hits: 6, Late: 1, Early: 0, Misses: 0
68e-> Hits: 809, Late: 165, Early: 0, Misses: 17
690-> Hits: 1747, Late: 9, Early: 0, Misses: 0
691-> Hits: 50, Late: 231, Early: 0, Misses: 1
692-> Hits: 56458, Late: 3736, Early: 0, Misses: 22
693-> Hits: 1337, Late: 0, Early: 0, Misses: 0
694-> Hits: 55, Late: 227, Early: 0, Misses: 0
695-> Hits: 11, Late: 0, Early: 0, Misses: 0
697-> Hits: 61554, Late: 392, Early: 0, Misses: 5
698-> Hits: 1188, Late: 84, Early: 0, Misses: 0
699-> Hits: 93, Late: 88, Early: 0, Misses: 3
69b-> Hits: 1374, Late: 7, Early: 0, Misses: 0
69c-> Hits: 2804, Late: 0, Early: 0, Misses: 0
69d-> Hits: 55, Late: 119, Early: 0, Misses: 10
69e-> Hits: 1176, Late: 30, Early: 0, Misses: 0
69f-> Hits: 1973, Late: 14, Early: 0, Misses: 0
6a0-> Hits: 3805, Late: 125, Early: 0, Misses: 34
6a2-> Hits: 1982, Late: 0, Early: 0, Misses: 0
6a4-> Hits: 1193, Late: 293, Early: 0, Misses: 0
6a5-> Hits: 539, Late: 443, Early: 0, Misses: 9
6a6-> Hits: 0, Late: 0, Early: 0, Misses: 3
6a8-> Hits: 57, Late: 164, Early: 0, Misses: 0
6a9-> Hits: 233, Late: 0, Early: 0, Misses: 0
6aa-> Hits: 233, Late: 0, Early: 0, Misses: 0
6ab-> Hits: 10, Late: 174, Early: 0, Misses: 0
6ac-> Hits: 233, Late: 0, Early: 0, Misses: 0
6ad-> Hits: 68, Late: 1, Early: 0, Misses: 1
6ae-> Hits: 233, Late: 0, Early: 0, Misses: 0
6b0-> Hits: 233, Late: 0, Early: 0, Misses: 1
6b1-> Hits: 650, Late: 273, Early: 0, Misses: 0
6b2-> Hits: 60, Late: 4, Early: 0, Misses: 0
6b4-> Hits: 1224, Late: 0, Early: 0, Misses: 0
6b8-> Hits: 1077, Late: 0, Early: 0, Misses: 0
6b9-> Hits: 331, Late: 0, Early: 0, Misses: 0
6ba-> Hits: 702, Late: 0, Early: 0, Misses: 0
6bb-> Hits: 545, Late: 0, Early: 0, Misses: 0
6bc-> Hits: 10466, Late: 0, Early: 0, Misses: 0
6bd-> Hits: 12573, Late: 594, Early: 0, Misses: 0
6be-> Hits: 10481, Late: 0, Early: 0, Misses: 0
6bf-> Hits: 5075, Late: 655, Early: 0, Misses: 0
6c0-> Hits: 1352, Late: 0, Early: 0, Misses: 0
6c1-> Hits: 1841, Late: 0, Early: 0, Misses: 0
6c4-> Hits: 169, Late: 15, Early: 0, Misses: 0
6c5-> Hits: 1872, Late: 0, Early: 0, Misses: 0
6c6-> Hits: 1954, Late: 248, Early: 0, Misses: 0
6c7-> Hits: 992, Late: 0, Early: 0, Misses: 0
6c9-> Hits: 1, Late: 0, Early: 0, Misses: 1
6cb-> Hits: 322, Late: 0, Early: 0, Misses: 0
6cc-> Hits: 2035, Late: 17, Early: 0, Misses: 0
6ce-> Hits: 991, Late: 0, Early: 0, Misses: 0
6cf-> Hits: 3, Late: 0, Early: 0, Misses: 0
6d0-> Hits: 124, Late: 0, Early: 0, Misses: 0
6d3-> Hits: 2001, Late: 0, Early: 0, Misses: 0
6d6-> Hits: 991, Late: 0, Early: 0, Misses: 0
6d7-> Hits: 2744, Late: 2348, Early: 0, Misses: 0
6da-> Hits: 57, Late: 0, Early: 0, Misses: 0
6db-> Hits: 2929, Late: 0, Early: 0, Misses: 0
6dc-> Hits: 753, Late: 554, Early: 0, Misses: 0
6dd-> Hits: 1108, Late: 0, Early: 0, Misses: 0
6de-> Hits: 1011, Late: 0, Early: 0, Misses: 0
6df-> Hits: 233, Late: 0, Early: 0, Misses: 0
6e0-> Hits: 1117, Late: 0, Early: 0, Misses: 0
6e1-> Hits: 991, Late: 0, Early: 0, Misses: 0
6e3-> Hits: 991, Late: 0, Early: 0, Misses: 0
6e4-> Hits: 233, Late: 0, Early: 0, Misses: 0
6e5-> Hits: 1711, Late: 0, Early: 0, Misses: 1
6e6-> Hits: 1223, Late: 1, Early: 0, Misses: 0
6e8-> Hits: 233, Late: 0, Early: 0, Misses: 0
6ed-> Hits: 29, Late: 0, Early: 0, Misses: 0
6ee-> Hits: 1138, Late: 0, Early: 0, Misses: 0
6ef-> Hits: 6467, Late: 0, Early: 0, Misses: 0
6f0-> Hits: 56454, Late: 0, Early: 0, Misses: 0
6f2-> Hits: 1373, Late: 0, Early: 0, Misses: 0
6f3-> Hits: 7, Late: 0, Early: 0, Misses: 0
6f4-> Hits: 1344, Late: 0, Early: 0, Misses: 0
6f5-> Hits: 2, Late: 0, Early: 0, Misses: 0
6f6-> Hits: 1341, Late: 0, Early: 0, Misses: 0
6f7-> Hits: 889, Late: 0, Early: 0, Misses: 0
6f8-> Hits: 6375, Late: 0, Early: 0, Misses: 0
6f9-> Hits: 2449, Late: 0, Early: 0, Misses: 0
6fb-> Hits: 886, Late: 4, Early: 0, Misses: 0
6fd-> Hits: 233, Late: 0, Early: 0, Misses: 0
701-> Hits: 233, Late: 0, Early: 0, Misses: 0
702-> Hits: 1292, Late: 27, Early: 0, Misses: 1
703-> Hits: 230, Late: 0, Early: 0, Misses: 0
704-> Hits: 4809, Late: 37, Early: 0, Misses: 0
705-> Hits: 233, Late: 0, Early: 0, Misses: 0
706-> Hits: 2123, Late: 587, Early: 0, Misses: 20
708-> Hits: 1757, Late: 0, Early: 0, Misses: 0
709-> Hits: 516, Late: 0, Early: 0, Misses: 0
70a-> Hits: 7438, Late: 429, Early: 0, Misses: 177
70b-> Hits: 5792, Late: 0, Early: 0, Misses: 0
70c-> Hits: 280, Late: 0, Early: 0, Misses: 0
70d-> Hits: 5267, Late: 0, Early: 0, Misses: 0
70e-> Hits: 554, Late: 0, Early: 0, Misses: 0
70f-> Hits: 5034, Late: 0, Early: 0, Misses: 0
710-> Hits: 280, Late: 0, Early: 0, Misses: 0
711-> Hits: 5267, Late: 0, Early: 0, Misses: 0
712-> Hits: 4564, Late: 0, Early: 0, Misses: 0
713-> Hits: 8682, Late: 0, Early: 0, Misses: 0
715-> Hits: 2881, Late: 0, Early: 0, Misses: 0
717-> Hits: 1005, Late: 0, Early: 0, Misses: 0
71c-> Hits: 420, Late: 0, Early: 0, Misses: 0
71d-> Hits: 1097, Late: 9, Early: 0, Misses: 0
71e-> Hits: 1104, Late: 3, Early: 0, Misses: 1
71f-> Hits: 1389, Late: 0, Early: 0, Misses: 0
720-> Hits: 11118, Late: 1, Early: 0, Misses: 0
721-> Hits: 1596, Late: 430, Early: 0, Misses: 0
722-> Hits: 233, Late: 0, Early: 0, Misses: 0
723-> Hits: 978, Late: 0, Early: 0, Misses: 0
724-> Hits: 1088, Late: 0, Early: 0, Misses: 0
726-> Hits: 1215, Late: 0, Early: 0, Misses: 0
729-> Hits: 91, Late: 0, Early: 0, Misses: 0
72c-> Hits: 252, Late: 39, Early: 0, Misses: 0
72d-> Hits: 1310, Late: 98, Early: 0, Misses: 0
72e-> Hits: 161, Late: 0, Early: 0, Misses: 0
730-> Hits: 7260, Late: 285, Early: 0, Misses: 0
732-> Hits: 1108, Late: 0, Early: 0, Misses: 0
733-> Hits: 184, Late: 0, Early: 0, Misses: 0
736-> Hits: 1292, Late: 107, Early: 0, Misses: 0
737-> Hits: 1, Late: 0, Early: 0, Misses: 0
739-> Hits: 236, Late: 0, Early: 0, Misses: 0
73b-> Hits: 49, Late: 0, Early: 0, Misses: 0
73e-> Hits: 49, Late: 0, Early: 0, Misses: 0
73f-> Hits: 46, Late: 0, Early: 0, Misses: 0
740-> Hits: 720, Late: 0, Early: 0, Misses: 0
741-> Hits: 71, Late: 9, Early: 0, Misses: 0
742-> Hits: 1, Late: 0, Early: 0, Misses: 0
743-> Hits: 589, Late: 0, Early: 0, Misses: 0
744-> Hits: 147, Late: 0, Early: 0, Misses: 0
745-> Hits: 719, Late: 0, Early: 0, Misses: 0
746-> Hits: 332, Late: 82, Early: 0, Misses: 3
747-> Hits: 1022, Late: 0, Early: 0, Misses: 0
749-> Hits: 6176, Late: 985, Early: 0, Misses: 34
74a-> Hits: 1637, Late: 49, Early: 0, Misses: 10
74b-> Hits: 52, Late: 0, Early: 0, Misses: 0
74c-> Hits: 49, Late: 0, Early: 0, Misses: 0
74d-> Hits: 1359, Late: 0, Early: 0, Misses: 0
74e-> Hits: 1126, Late: 0, Early: 0, Misses: 0
74f-> Hits: 1108, Late: 0, Early: 0, Misses: 0
750-> Hits: 4652, Late: 0, Early: 0, Misses: 0
751-> Hits: 264, Late: 0, Early: 0, Misses: 0
752-> Hits: 1126, Late: 0, Early: 0, Misses: 0
754-> Hits: 4879, Late: 0, Early: 0, Misses: 0
755-> Hits: 2, Late: 47, Early: 0, Misses: 0
756-> Hits: 2418, Late: 0, Early: 0, Misses: 0
757-> Hits: 1129, Late: 0, Early: 0, Misses: 0
758-> Hits: 233, Late: 0, Early: 0, Misses: 0
759-> Hits: 1341, Late: 0, Early: 0, Misses: 0
75a-> Hits: 1108, Late: 0, Early: 0, Misses: 0
75b-> Hits: 303, Late: 19, Early: 0, Misses: 0
75d-> Hits: 233, Late: 0, Early: 0, Misses: 0
75e-> Hits: 232, Late: 0, Early: 0, Misses: 0
75f-> Hits: 233, Late: 0, Early: 0, Misses: 0
761-> Hits: 1340, Late: 1, Early: 0, Misses: 0
762-> Hits: 465, Late: 0, Early: 0, Misses: 0
764-> Hits: 53, Late: 0, Early: 0, Misses: 0
765-> Hits: 170, Late: 0, Early: 0, Misses: 0
767-> Hits: 1397, Late: 0, Early: 0, Misses: 1
76a-> Hits: 3724, Late: 0, Early: 0, Misses: 0
76b-> Hits: 1126, Late: 0, Early: 0, Misses: 1
76d-> Hits: 232, Late: 0, Early: 0, Misses: 0
770-> Hits: 3598, Late: 0, Early: 0, Misses: 0
773-> Hits: 109, Late: 7, Early: 0, Misses: 0
774-> Hits: 232, Late: 0, Early: 0, Misses: 0
775-> Hits: 904, Late: 204, Early: 0, Misses: 0
777-> Hits: 3087, Late: 0, Early: 0, Misses: 0
778-> Hits: 1154, Late: 0, Early: 0, Misses: 1
779-> Hits: 182, Late: 0, Early: 0, Misses: 0
77a-> Hits: 3216, Late: 0, Early: 0, Misses: 0
77b-> Hits: 2252, Late: 0, Early: 0, Misses: 0
77c-> Hits: 2094, Late: 0, Early: 0, Misses: 0
77e-> Hits: 3206, Late: 0, Early: 0, Misses: 0
780-> Hits: 2098, Late: 0, Early: 0, Misses: 0
782-> Hits: 2099, Late: 4, Early: 0, Misses: 0
783-> Hits: 1154, Late: 0, Early: 0, Misses: 1
784-> Hits: 2099, Late: 0, Early: 0, Misses: 0
785-> Hits: 2099, Late: 0, Early: 0, Misses: 0
787-> Hits: 11, Late: 0, Early: 0, Misses: 0
788-> Hits: 991, Late: 0, Early: 0, Misses: 0
78a-> Hits: 322, Late: 13, Early: 0, Misses: 0
78b-> Hits: 1108, Late: 0, Early: 0, Misses: 0
78e-> Hits: 232, Late: 0, Early: 0, Misses: 0
78f-> Hits: 995, Late: 0, Early: 0, Misses: 0
790-> Hits: 17963, Late: 0, Early: 0, Misses: 0
791-> Hits: 321, Late: 0, Early: 0, Misses: 1
792-> Hits: 990, Late: 1, Early: 0, Misses: 0
794-> Hits: 19515, Late: 220, Early: 0, Misses: 15
797-> Hits: 22, Late: 5, Early: 0, Misses: 0
798-> Hits: 952, Late: 0, Early: 0, Misses: 1
799-> Hits: 232, Late: 0, Early: 0, Misses: 0
79a-> Hits: 125, Late: 0, Early: 0, Misses: 0
79b-> Hits: 413, Late: 353, Early: 0, Misses: 1
79d-> Hits: 473, Late: 0, Early: 0, Misses: 0
79e-> Hits: 17, Late: 0, Early: 0, Misses: 0
79f-> Hits: 989, Late: 1, Early: 0, Misses: 1
7a0-> Hits: 232, Late: 0, Early: 0, Misses: 0
7a1-> Hits: 154, Late: 0, Early: 0, Misses: 0
7a4-> Hits: 519, Late: 6, Early: 0, Misses: 1
7a5-> Hits: 19957, Late: 17, Early: 0, Misses: 20
7a7-> Hits: 22, Late: 0, Early: 0, Misses: 0
7a8-> Hits: 991, Late: 0, Early: 0, Misses: 0
7a9-> Hits: 18147, Late: 652, Early: 0, Misses: 204
7ac-> Hits: 2832, Late: 10, Early: 0, Misses: 2
7b0-> Hits: 722, Late: 0, Early: 0, Misses: 0
7b1-> Hits: 55, Late: 0, Early: 0, Misses: 0
7b2-> Hits: 19016, Late: 6, Early: 0, Misses: 6
7b4-> Hits: 480, Late: 0, Early: 0, Misses: 0
7b5-> Hits: 19468, Late: 0, Early: 0, Misses: 0
7b8-> Hits: 124, Late: 0, Early: 0, Misses: 0
7b9-> Hits: 203, Late: 158, Early: 0, Misses: 0
7ba-> Hits: 22056, Late: 0, Early: 0, Misses: 0
7bb-> Hits: 931, Late: 99, Early: 0, Misses: 0
7bc-> Hits: 189, Late: 172, Early: 0, Misses: 0
7bd-> Hits: 209, Late: 0, Early: 0, Misses: 0
7bf-> Hits: 244, Late: 0, Early: 0, Misses: 0
7c0-> Hits: 89, Late: 9, Early: 0, Misses: 0
7c1-> Hits: 257, Late: 0, Early: 0, Misses: 0
7c4-> Hits: 776, Late: 104, Early: 0, Misses: 0
7c5-> Hits: 579, Late: 0, Early: 0, Misses: 0
7c7-> Hits: 344, Late: 0, Early: 0, Misses: 7
7c8-> Hits: 232, Late: 0, Early: 0, Misses: 0
7ca-> Hits: 4, Late: 0, Early: 0, Misses: 0
7cc-> Hits: 233, Late: 0, Early: 0, Misses: 0
7cd-> Hits: 666, Late: 0, Early: 0, Misses: 0
7d0-> Hits: 2128, Late: 0, Early: 0, Misses: 0
7d2-> Hits: 815, Late: 174, Early: 0, Misses: 119
7d8-> Hits: 162, Late: 0, Early: 0, Misses: 0
7da-> Hits: 1011, Late: 92, Early: 0, Misses: 4
7de-> Hits: 233, Late: 0, Early: 0, Misses: 0
7df-> Hits: 233, Late: 0, Early: 0, Misses: 0
7e0-> Hits: 1230, Late: 2, Early: 0, Misses: 0
7e1-> Hits: 233, Late: 0, Early: 0, Misses: 0
7e3-> Hits: 3790, Late: 0, Early: 0, Misses: 0
7e4-> Hits: 562, Late: 0, Early: 0, Misses: 1
7e5-> Hits: 466, Late: 0, Early: 0, Misses: 0
7e7-> Hits: 3796, Late: 0, Early: 0, Misses: 0
7e8-> Hits: 1806, Late: 0, Early: 0, Misses: 0
7eb-> Hits: 233, Late: 0, Early: 0, Misses: 0
7ec-> Hits: 814, Late: 162, Early: 0, Misses: 131
7ed-> Hits: 243, Late: 0, Early: 0, Misses: 0
7f0-> Hits: 232, Late: 0, Early: 0, Misses: 0
7f1-> Hits: 749, Late: 129, Early: 0, Misses: 2
7f4-> Hits: 703, Late: 180, Early: 0, Misses: 0
7f5-> Hits: 18, Late: 4, Early: 0, Misses: 0
7f7-> Hits: 852, Late: 0, Early: 0, Misses: 0
7f8-> Hits: 1089, Late: 16, Early: 0, Misses: 0
7f9-> Hits: 22480, Late: 218, Early: 0, Misses: 0
7fb-> Hits: 148, Late: 84, Early: 0, Misses: 0
7fc-> Hits: 1289, Late: 50, Early: 0, Misses: 2
7ff-> Hits: 232, Late: 0, Early: 0, Misses: 0
800-> Hits: 24, Late: 0, Early: 0, Misses: 0
804-> Hits: 1050, Late: 52, Early: 0, Misses: 6
806-> Hits: 69, Late: 0, Early: 0, Misses: 0
807-> Hits: 1342, Late: 0, Early: 0, Misses: 4
808-> Hits: 2, Late: 0, Early: 0, Misses: 0
80c-> Hits: 8967, Late: 7, Early: 0, Misses: 0
811-> Hits: 232, Late: 0, Early: 0, Misses: 0
814-> Hits: 233, Late: 0, Early: 0, Misses: 0
815-> Hits: 720, Late: 0, Early: 0, Misses: 0
817-> Hits: 233, Late: 0, Early: 0, Misses: 0
818-> Hits: 49, Late: 0, Early: 0, Misses: 0
819-> Hits: 232, Late: 0, Early: 0, Misses: 0
81b-> Hits: 124, Late: 0, Early: 0, Misses: 0
81d-> Hits: 582, Late: 2, Early: 0, Misses: 44
81e-> Hits: 1251, Late: 90, Early: 0, Misses: 0
81f-> Hits: 971, Late: 0, Early: 0, Misses: 1
820-> Hits: 8, Late: 0, Early: 0, Misses: 0
821-> Hits: 991, Late: 0, Early: 0, Misses: 0
823-> Hits: 1157, Late: 0, Early: 0, Misses: 0
824-> Hits: 232, Late: 0, Early: 0, Misses: 0
827-> Hits: 5, Late: 0, Early: 0, Misses: 0
82b-> Hits: 1108, Late: 1, Early: 0, Misses: 0
82c-> Hits: 991, Late: 0, Early: 0, Misses: 0
82d-> Hits: 25, Late: 0, Early: 0, Misses: 0
82f-> Hits: 842, Late: 0, Early: 0, Misses: 0
833-> Hits: 1123, Late: 0, Early: 0, Misses: 0
836-> Hits: 2793, Late: 0, Early: 0, Misses: 0
837-> Hits: 2640, Late: 0, Early: 0, Misses: 0
838-> Hits: 529, Late: 0, Early: 0, Misses: 0
83a-> Hits: 537, Late: 7, Early: 0, Misses: 7
83b-> Hits: 3539, Late: 12, Early: 0, Misses: 3
841-> Hits: 60, Late: 0, Early: 0, Misses: 0
846-> Hits: 991, Late: 0, Early: 0, Misses: 0
848-> Hits: 637, Late: 0, Early: 0, Misses: 0
84c-> Hits: 991, Late: 0, Early: 0, Misses: 0
84d-> Hits: 232, Late: 0, Early: 0, Misses: 0
84e-> Hits: 1108, Late: 0, Early: 0, Misses: 0
850-> Hits: 9, Late: 0, Early: 0, Misses: 0
851-> Hits: 991, Late: 0, Early: 0, Misses: 0
854-> Hits: 855, Late: 262, Early: 0, Misses: 0
857-> Hits: 222, Late: 0, Early: 0, Misses: 0
859-> Hits: 232, Late: 0, Early: 0, Misses: 0
860-> Hits: 464, Late: 0, Early: 0, Misses: 0
862-> Hits: 920, Late: 188, Early: 0, Misses: 0
864-> Hits: 601, Late: 537, Early: 0, Misses: 1
865-> Hits: 232, Late: 0, Early: 0, Misses: 0
867-> Hits: 923, Late: 0, Early: 0, Misses: 0
868-> Hits: 1111, Late: 0, Early: 0, Misses: 0
869-> Hits: 979, Late: 134, Early: 0, Misses: 1
86a-> Hits: 872, Late: 47, Early: 0, Misses: 5
86d-> Hits: 232, Late: 0, Early: 0, Misses: 0
86f-> Hits: 1567, Late: 103, Early: 0, Misses: 1
870-> Hits: 672, Late: 0, Early: 0, Misses: 0
871-> Hits: 1628, Late: 139, Early: 0, Misses: 0
874-> Hits: 232, Late: 0, Early: 0, Misses: 0
875-> Hits: 47, Late: 0, Early: 0, Misses: 0
876-> Hits: 26, Late: 0, Early: 0, Misses: 0
878-> Hits: 187, Late: 0, Early: 0, Misses: 0
879-> Hits: 3, Late: 0, Early: 0, Misses: 0
87d-> Hits: 230, Late: 0, Early: 0, Misses: 0
87e-> Hits: 923, Late: 0, Early: 0, Misses: 0
882-> Hits: 49, Late: 0, Early: 0, Misses: 0
887-> Hits: 306, Late: 0, Early: 0, Misses: 0
888-> Hits: 1991, Late: 0, Early: 0, Misses: 0
889-> Hits: 914, Late: 0, Early: 0, Misses: 9
88a-> Hits: 3048, Late: 0, Early: 0, Misses: 0
88b-> Hits: 2751, Late: 0, Early: 0, Misses: 0
88d-> Hits: 972, Late: 0, Early: 0, Misses: 0
88f-> Hits: 49, Late: 0, Early: 0, Misses: 0
890-> Hits: 236, Late: 0, Early: 0, Misses: 1
891-> Hits: 49, Late: 0, Early: 0, Misses: 0
893-> Hits: 49, Late: 0, Early: 0, Misses: 0
894-> Hits: 1021, Late: 0, Early: 0, Misses: 0
895-> Hits: 195, Late: 0, Early: 0, Misses: 0
896-> Hits: 875, Late: 0, Early: 0, Misses: 0
898-> Hits: 149, Late: 4, Early: 0, Misses: 0
89a-> Hits: 187, Late: 0, Early: 0, Misses: 0
89b-> Hits: 1345, Late: 170, Early: 0, Misses: 59
89c-> Hits: 563, Late: 0, Early: 0, Misses: 0
89d-> Hits: 52, Late: 0, Early: 0, Misses: 0
89f-> Hits: 1, Late: 0, Early: 0, Misses: 0
8a0-> Hits: 1531, Late: 604, Early: 0, Misses: 2
8a1-> Hits: 604, Late: 0, Early: 0, Misses: 0
8a2-> Hits: 1108, Late: 0, Early: 0, Misses: 0
8a3-> Hits: 9, Late: 0, Early: 0, Misses: 0
8a4-> Hits: 2562, Late: 347, Early: 0, Misses: 5
8a6-> Hits: 1108, Late: 0, Early: 0, Misses: 0
8a7-> Hits: 21, Late: 0, Early: 0, Misses: 0
8a8-> Hits: 1108, Late: 0, Early: 0, Misses: 0
8aa-> Hits: 1125, Late: 0, Early: 0, Misses: 0
8ab-> Hits: 1117, Late: 0, Early: 0, Misses: 0
8ad-> Hits: 2413, Late: 286, Early: 0, Misses: 34
8b0-> Hits: 576, Late: 220, Early: 0, Misses: 0
8b1-> Hits: 1723, Late: 0, Early: 0, Misses: 0
8b5-> Hits: 2126, Late: 323, Early: 0, Misses: 0
8b6-> Hits: 198, Late: 0, Early: 0, Misses: 0
8b7-> Hits: 9, Late: 0, Early: 0, Misses: 0
8b8-> Hits: 346, Late: 0, Early: 0, Misses: 0
8b9-> Hits: 875, Late: 0, Early: 0, Misses: 0
8bc-> Hits: 231, Late: 0, Early: 0, Misses: 0
8bd-> Hits: 1107, Late: 0, Early: 0, Misses: 0
8bf-> Hits: 232, Late: 0, Early: 0, Misses: 0
8c1-> Hits: 232, Late: 0, Early: 0, Misses: 0
8c3-> Hits: 235, Late: 0, Early: 0, Misses: 0
8c4-> Hits: 232, Late: 0, Early: 0, Misses: 0
8ca-> Hits: 875, Late: 0, Early: 0, Misses: 0
8cb-> Hits: 1, Late: 0, Early: 0, Misses: 0
8cd-> Hits: 279, Late: 0, Early: 0, Misses: 0
8cf-> Hits: 233, Late: 0, Early: 0, Misses: 0
8d0-> Hits: 126, Late: 0, Early: 0, Misses: 0
8d1-> Hits: 863, Late: 0, Early: 0, Misses: 0
8d2-> Hits: 1, Late: 0, Early: 0, Misses: 0
8d3-> Hits: 307, Late: 3, Early: 0, Misses: 0
8d4-> Hits: 1082, Late: 626, Early: 0, Misses: 0
8d7-> Hits: 167, Late: 0, Early: 0, Misses: 0
8d8-> Hits: 127, Late: 0, Early: 0, Misses: 0
8da-> Hits: 4, Late: 0, Early: 0, Misses: 0
8db-> Hits: 1574, Late: 0, Early: 0, Misses: 0
8dc-> Hits: 233, Late: 0, Early: 0, Misses: 0
8e0-> Hits: 1364, Late: 245, Early: 0, Misses: 0
8e2-> Hits: 763, Late: 0, Early: 0, Misses: 0
8e4-> Hits: 546, Late: 893, Early: 0, Misses: 41
8e5-> Hits: 184, Late: 0, Early: 0, Misses: 0
8e6-> Hits: 177, Late: 0, Early: 0, Misses: 0
8e8-> Hits: 188, Late: 0, Early: 0, Misses: 0
8e9-> Hits: 1051, Late: 0, Early: 0, Misses: 0
8ea-> Hits: 906, Late: 532, Early: 0, Misses: 35
8eb-> Hits: 1003, Late: 0, Early: 0, Misses: 0
8ec-> Hits: 416, Late: 0, Early: 0, Misses: 0
8ed-> Hits: 128, Late: 0, Early: 0, Misses: 0
8ee-> Hits: 1071, Late: 0, Early: 0, Misses: 0
8ef-> Hits: 196, Late: 0, Early: 0, Misses: 0
8f1-> Hits: 970, Late: 0, Early: 0, Misses: 0
8f2-> Hits: 875, Late: 0, Early: 0, Misses: 0
8f5-> Hits: 875, Late: 0, Early: 0, Misses: 0
8f6-> Hits: 83, Late: 49, Early: 0, Misses: 0
8f7-> Hits: 65, Late: 2, Early: 0, Misses: 0
8f8-> Hits: 232, Late: 0, Early: 0, Misses: 0
8f9-> Hits: 921, Late: 0, Early: 0, Misses: 2
8fa-> Hits: 509, Late: 234, Early: 0, Misses: 4
8fb-> Hits: 55, Late: 3, Early: 0, Misses: 0
8fc-> Hits: 24, Late: 0, Early: 0, Misses: 0
8fd-> Hits: 27, Late: 0, Early: 0, Misses: 0
8fe-> Hits: 562, Late: 234, Early: 0, Misses: 4
8ff-> Hits: 1134, Late: 0, Early: 0, Misses: 4
900-> Hits: 2898, Late: 0, Early: 0, Misses: 5
901-> Hits: 924, Late: 0, Early: 0, Misses: 0
902-> Hits: 495, Late: 243, Early: 0, Misses: 9
903-> Hits: 875, Late: 0, Early: 0, Misses: 0
904-> Hits: 146, Late: 0, Early: 0, Misses: 0
905-> Hits: 879, Late: 7, Early: 0, Misses: 0
907-> Hits: 926, Late: 0, Early: 0, Misses: 0
909-> Hits: 2318, Late: 195, Early: 0, Misses: 6
90a-> Hits: 875, Late: 0, Early: 0, Misses: 0
90b-> Hits: 3, Late: 230, Early: 0, Misses: 0
90c-> Hits: 143, Late: 57, Early: 0, Misses: 0
90d-> Hits: 129, Late: 0, Early: 0, Misses: 0
90f-> Hits: 747, Late: 0, Early: 0, Misses: 0
910-> Hits: 1315, Late: 55, Early: 0, Misses: 4
911-> Hits: 1168, Late: 149, Early: 0, Misses: 0
912-> Hits: 53, Late: 3, Early: 0, Misses: 0
913-> Hits: 747, Late: 0, Early: 0, Misses: 0
914-> Hits: 98, Late: 191, Early: 0, Misses: 0
915-> Hits: 233, Late: 0, Early: 0, Misses: 0
917-> Hits: 1293, Late: 270, Early: 0, Misses: 5
918-> Hits: 1108, Late: 0, Early: 0, Misses: 0
919-> Hits: 30, Late: 56, Early: 0, Misses: 0
91a-> Hits: 2297, Late: 0, Early: 0, Misses: 0
91b-> Hits: 806, Late: 0, Early: 0, Misses: 0
91d-> Hits: 880, Late: 0, Early: 0, Misses: 0
91f-> Hits: 1520, Late: 0, Early: 0, Misses: 1
921-> Hits: 880, Late: 0, Early: 0, Misses: 0
922-> Hits: 170, Late: 0, Early: 0, Misses: 0
923-> Hits: 521, Late: 5, Early: 0, Misses: 0
927-> Hits: 1155, Late: 0, Early: 0, Misses: 0
928-> Hits: 280, Late: 0, Early: 0, Misses: 0
929-> Hits: 195, Late: 0, Early: 0, Misses: 0
92b-> Hits: 3624, Late: 447, Early: 0, Misses: 2
92d-> Hits: 747, Late: 0, Early: 0, Misses: 0
92f-> Hits: 5542, Late: 1120, Early: 0, Misses: 251
930-> Hits: 798, Late: 0, Early: 0, Misses: 0
931-> Hits: 267, Late: 0, Early: 0, Misses: 0
932-> Hits: 41, Late: 65, Early: 0, Misses: 0
933-> Hits: 923, Late: 0, Early: 0, Misses: 0
934-> Hits: 496, Late: 0, Early: 0, Misses: 0
935-> Hits: 318, Late: 0, Early: 0, Misses: 0
936-> Hits: 1693, Late: 0, Early: 0, Misses: 0
937-> Hits: 1669, Late: 0, Early: 0, Misses: 1
938-> Hits: 281, Late: 0, Early: 0, Misses: 0
93a-> Hits: 218, Late: 34, Early: 0, Misses: 0
93b-> Hits: 232, Late: 0, Early: 0, Misses: 0
93c-> Hits: 232, Late: 0, Early: 0, Misses: 0
93d-> Hits: 20, Late: 213, Early: 0, Misses: 0
93e-> Hits: 989, Late: 106, Early: 0, Misses: 0
940-> Hits: 1050, Late: 223, Early: 0, Misses: 66
941-> Hits: 926, Late: 230, Early: 0, Misses: 0
942-> Hits: 232, Late: 0, Early: 0, Misses: 0
943-> Hits: 233, Late: 0, Early: 0, Misses: 0
944-> Hits: 571, Late: 227, Early: 0, Misses: 0
945-> Hits: 232, Late: 0, Early: 0, Misses: 0
947-> Hits: 233, Late: 0, Early: 0, Misses: 0
948-> Hits: 1112, Late: 42, Early: 0, Misses: 1
94c-> Hits: 93, Late: 4, Early: 0, Misses: 0
94d-> Hits: 929, Late: 0, Early: 0, Misses: 0
94f-> Hits: 922, Late: 0, Early: 0, Misses: 1
950-> Hits: 1, Late: 2, Early: 0, Misses: 0
952-> Hits: 1108, Late: 0, Early: 0, Misses: 0
953-> Hits: 961, Late: 26, Early: 0, Misses: 0
954-> Hits: 20, Late: 0, Early: 0, Misses: 0
955-> Hits: 20, Late: 0, Early: 0, Misses: 0
957-> Hits: 1262, Late: 0, Early: 0, Misses: 0
959-> Hits: 20, Late: 0, Early: 0, Misses: 0
95b-> Hits: 20, Late: 0, Early: 0, Misses: 0
95c-> Hits: 10, Late: 0, Early: 0, Misses: 0
95d-> Hits: 20, Late: 0, Early: 0, Misses: 0
95f-> Hits: 641, Late: 0, Early: 0, Misses: 0
960-> Hits: 1760, Late: 0, Early: 0, Misses: 1
961-> Hits: 11, Late: 0, Early: 0, Misses: 0
962-> Hits: 929, Late: 0, Early: 0, Misses: 0
963-> Hits: 1276, Late: 0, Early: 0, Misses: 0
965-> Hits: 929, Late: 0, Early: 0, Misses: 0
966-> Hits: 372, Late: 43, Early: 0, Misses: 12
967-> Hits: 1014, Late: 0, Early: 0, Misses: 0
96a-> Hits: 337, Late: 0, Early: 0, Misses: 0
96b-> Hits: 729, Late: 715, Early: 0, Misses: 3
96c-> Hits: 1574, Late: 0, Early: 0, Misses: 0
96d-> Hits: 1583, Late: 30, Early: 0, Misses: 0
96e-> Hits: 3939, Late: 18, Early: 0, Misses: 0
96f-> Hits: 1574, Late: 0, Early: 0, Misses: 0
970-> Hits: 270, Late: 0, Early: 0, Misses: 0
971-> Hits: 1612, Late: 47, Early: 0, Misses: 0
972-> Hits: 235, Late: 0, Early: 0, Misses: 0
973-> Hits: 1577, Late: 0, Early: 0, Misses: 0
974-> Hits: 328, Late: 127, Early: 0, Misses: 0
975-> Hits: 1623, Late: 0, Early: 0, Misses: 1
[...]
d61-> Hits: 1928, Late: 51, Early: 0, Misses: 0
d62-> Hits: 399, Late: 67, Early: 0, Misses: 1
d64-> Hits: 1157, Late: 0, Early: 0, Misses: 0
d65-> Hits: 122, Late: 160, Early: 0, Misses: 0
d67-> Hits: 232, Late: 0, Early: 0, Misses: 0
d68-> Hits: 233, Late: 0, Early: 0, Misses: 0
d6a-> Hits: 136, Late: 0, Early: 0, Misses: 0
d6b-> Hits: 1311, Late: 0, Early: 0, Misses: 0
d6d-> Hits: 233, Late: 43, Early: 0, Misses: 0
d6e-> Hits: 1251, Late: 131, Early: 0, Misses: 0
d71-> Hits: 233, Late: 0, Early: 0, Misses: 0
d72-> Hits: 2023, Late: 0, Early: 0, Misses: 0
d73-> Hits: 2026, Late: 0, Early: 0, Misses: 0
d75-> Hits: 2771, Late: 0, Early: 0, Misses: 0
d77-> Hits: 2026, Late: 0, Early: 0, Misses: 0
d79-> Hits: 2026, Late: 0, Early: 0, Misses: 0
d7a-> Hits: 139, Late: 0, Early: 0, Misses: 0
d7b-> Hits: 2026, Late: 0, Early: 0, Misses: 0
d7c-> Hits: 4171, Late: 0, Early: 0, Misses: 0
d7e-> Hits: 121, Late: 110, Early: 0, Misses: 0
d80-> Hits: 27204, Late: 21, Early: 0, Misses: 0
d84-> Hits: 49, Late: 0, Early: 0, Misses: 0
d85-> Hits: 1378, Late: 0, Early: 0, Misses: 0
d89-> Hits: 357595, Late: 19270, Early: 0, Misses: 0
d8a-> Hits: 4674, Late: 0, Early: 0, Misses: 0
d8c-> Hits: 6504, Late: 0, Early: 0, Misses: 0
d8d-> Hits: 124476, Late: 250466, Early: 0, Misses: 0
d8e-> Hits: 1173, Late: 205, Early: 0, Misses: 0
d91-> Hits: 4, Late: 0, Early: 0, Misses: 0
d93-> Hits: 2, Late: 0, Early: 0, Misses: 0
d95-> Hits: 232, Late: 0, Early: 0, Misses: 0
d99-> Hits: 41, Late: 191, Early: 0, Misses: 0
d9a-> Hits: 25, Late: 3, Early: 0, Misses: 0
d9b-> Hits: 144456, Late: 235473, Early: 0, Misses: 0
d9c-> Hits: 5611, Late: 0, Early: 0, Misses: 0
d9d-> Hits: 1439, Late: 0, Early: 0, Misses: 0
d9e-> Hits: 5631, Late: 0, Early: 0, Misses: 0
d9f-> Hits: 2196, Late: 0, Early: 0, Misses: 0
da0-> Hits: 5927, Late: 0, Early: 0, Misses: 0
da1-> Hits: 1378, Late: 212, Early: 0, Misses: 2
da2-> Hits: 6030, Late: 0, Early: 0, Misses: 0
da3-> Hits: 1091, Late: 0, Early: 0, Misses: 0
da4-> Hits: 7646, Late: 0, Early: 0, Misses: 0
da6-> Hits: 1475, Late: 0, Early: 0, Misses: 0
da7-> Hits: 1, Late: 0, Early: 0, Misses: 0
da8-> Hits: 770, Late: 0, Early: 0, Misses: 0
da9-> Hits: 466, Late: 0, Early: 0, Misses: 0
daa-> Hits: 147, Late: 0, Early: 0, Misses: 0
dab-> Hits: 101, Late: 0, Early: 0, Misses: 0
dad-> Hits: 143, Late: 0, Early: 0, Misses: 0
daf-> Hits: 1, Late: 0, Early: 0, Misses: 0
db0-> Hits: 61282, Late: 41236, Early: 0, Misses: 5
db1-> Hits: 10, Late: 82, Early: 0, Misses: 2
db2-> Hits: 1147, Late: 0, Early: 0, Misses: 0
db4-> Hits: 1, Late: 0, Early: 0, Misses: 0
db5-> Hits: 41, Late: 0, Early: 0, Misses: 0
db6-> Hits: 1147, Late: 0, Early: 0, Misses: 0
db8-> Hits: 1, Late: 0, Early: 0, Misses: 0
db9-> Hits: 1199, Late: 0, Early: 0, Misses: 0
dba-> Hits: 186, Late: 0, Early: 0, Misses: 0
dbb-> Hits: 1108, Late: 0, Early: 0, Misses: 0
dbc-> Hits: 875, Late: 0, Early: 0, Misses: 0
dbd-> Hits: 875, Late: 0, Early: 0, Misses: 0
dbf-> Hits: 74713, Late: 299050, Early: 0, Misses: 71
dc0-> Hits: 199, Late: 1, Early: 0, Misses: 0
dc4-> Hits: 1379, Late: 0, Early: 0, Misses: 0
dc5-> Hits: 1146, Late: 0, Early: 0, Misses: 0
dc7-> Hits: 2069, Late: 0, Early: 0, Misses: 0
dc9-> Hits: 1146, Late: 0, Early: 0, Misses: 0
dcb-> Hits: 18338, Late: 90123, Early: 0, Misses: 3
dcc-> Hits: 233, Late: 0, Early: 0, Misses: 0
dcd-> Hits: 1146, Late: 0, Early: 0, Misses: 0
dce-> Hits: 1146, Late: 0, Early: 0, Misses: 0
dcf-> Hits: 216720, Late: 144794, Early: 0, Misses: 66
dd0-> Hits: 1377, Late: 0, Early: 0, Misses: 0
dd3-> Hits: 55691, Late: 60051, Early: 0, Misses: 1
dd6-> Hits: 137, Late: 0, Early: 0, Misses: 0
dd8-> Hits: 1099, Late: 0, Early: 0, Misses: 0
ddb-> Hits: 360, Late: 0, Early: 0, Misses: 0
dde-> Hits: 230, Late: 0, Early: 0, Misses: 0
de0-> Hits: 28, Late: 72, Early: 0, Misses: 0
de1-> Hits: 1108, Late: 0, Early: 0, Misses: 0
de2-> Hits: 119465, Late: 255410, Early: 0, Misses: 0
de3-> Hits: 53, Late: 182, Early: 0, Misses: 2
de4-> Hits: 72, Late: 49, Early: 0, Misses: 0
de7-> Hits: 358, Late: 0, Early: 0, Misses: 0
de8-> Hits: 228, Late: 0, Early: 0, Misses: 0
de9-> Hits: 1108, Late: 0, Early: 0, Misses: 0
dea-> Hits: 12, Late: 0, Early: 0, Misses: 0
deb-> Hits: 700, Late: 7, Early: 0, Misses: 1
ded-> Hits: 236, Late: 0, Early: 0, Misses: 0
dee-> Hits: 32687, Late: 93593, Early: 0, Misses: 0
def-> Hits: 342, Late: 0, Early: 0, Misses: 1
df0-> Hits: 8, Late: 2, Early: 0, Misses: 0
df1-> Hits: 1111, Late: 0, Early: 0, Misses: 0
df2-> Hits: 59944, Late: 295622, Early: 0, Misses: 0
df3-> Hits: 97, Late: 0, Early: 0, Misses: 0
df5-> Hits: 1205, Late: 14, Early: 0, Misses: 0
df6-> Hits: 320667, Late: 40, Early: 0, Misses: 0
df8-> Hits: 97, Late: 0, Early: 0, Misses: 0
df9-> Hits: 350, Late: 19, Early: 0, Misses: 0
dfa-> Hits: 925, Late: 2, Early: 0, Misses: 8
dfb-> Hits: 90, Late: 0, Early: 0, Misses: 0
dfc-> Hits: 337, Late: 0, Early: 0, Misses: 0
dfe-> Hits: 826, Late: 82, Early: 0, Misses: 0
e00-> Hits: 206, Late: 55, Early: 0, Misses: 0
e02-> Hits: 378, Late: 0, Early: 0, Misses: 0
e03-> Hits: 148, Late: 0, Early: 0, Misses: 3
e04-> Hits: 373920, Late: 126, Early: 0, Misses: 0
e06-> Hits: 464, Late: 0, Early: 0, Misses: 0
e08-> Hits: 306, Late: 163, Early: 0, Misses: 0
e09-> Hits: 108, Late: 3, Early: 0, Misses: 0
e0a-> Hits: 507, Late: 0, Early: 0, Misses: 0
e0b-> Hits: 169, Late: 7, Early: 0, Misses: 0
e0c-> Hits: 464, Late: 0, Early: 0, Misses: 0
e0d-> Hits: 180, Late: 4, Early: 0, Misses: 0
e10-> Hits: 12366, Late: 1, Early: 0, Misses: 0
e12-> Hits: 101, Late: 0, Early: 0, Misses: 0
e14-> Hits: 373881, Late: 0, Early: 0, Misses: 0
e15-> Hits: 1, Late: 0, Early: 0, Misses: 6
e16-> Hits: 97, Late: 0, Early: 0, Misses: 0
e18-> Hits: 284840, Late: 0, Early: 0, Misses: 0
e19-> Hits: 130, Late: 0, Early: 0, Misses: 0
e1a-> Hits: 257463, Late: 23302, Early: 0, Misses: 4
e1d-> Hits: 296670, Late: 190, Early: 0, Misses: 0
e1f-> Hits: 1509, Late: 0, Early: 0, Misses: 0
e20-> Hits: 464, Late: 0, Early: 0, Misses: 0
e21-> Hits: 6, Late: 40, Early: 0, Misses: 0
e22-> Hits: 464, Late: 0, Early: 0, Misses: 0
e23-> Hits: 1551, Late: 0, Early: 0, Misses: 0
e24-> Hits: 2397, Late: 0, Early: 0, Misses: 0
e25-> Hits: 37, Late: 192, Early: 0, Misses: 4
e27-> Hits: 373832, Late: 1, Early: 0, Misses: 0
e29-> Hits: 1430, Late: 198, Early: 0, Misses: 3
e2a-> Hits: 200, Late: 0, Early: 0, Misses: 0
e2d-> Hits: 78, Late: 0, Early: 0, Misses: 0
e2e-> Hits: 217, Late: 82, Early: 0, Misses: 0
e30-> Hits: 1531, Late: 156, Early: 0, Misses: 0
e31-> Hits: 1, Late: 0, Early: 0, Misses: 0
e33-> Hits: 310428, Late: 1, Early: 0, Misses: 0
e35-> Hits: 2, Late: 0, Early: 0, Misses: 0
e36-> Hits: 233, Late: 0, Early: 0, Misses: 0
e37-> Hits: 1279250, Late: 2017, Early: 0, Misses: 1
e3a-> Hits: 2023, Late: 0, Early: 0, Misses: 0
e3d-> Hits: 32, Late: 201, Early: 0, Misses: 0
e3e-> Hits: 952345, Late: 1, Early: 0, Misses: 0
e40-> Hits: 464, Late: 33, Early: 0, Misses: 0
e41-> Hits: 331, Late: 233, Early: 0, Misses: 0
e42-> Hits: 166, Late: 49, Early: 0, Misses: 0
e44-> Hits: 24, Late: 0, Early: 0, Misses: 0
e45-> Hits: 232, Late: 0, Early: 0, Misses: 0
e47-> Hits: 34, Late: 195, Early: 0, Misses: 4
e48-> Hits: 608, Late: 233, Early: 0, Misses: 0
e49-> Hits: 232, Late: 0, Early: 0, Misses: 0
e4c-> Hits: 217741, Late: 1, Early: 0, Misses: 0
e4e-> Hits: 1108, Late: 0, Early: 0, Misses: 0
e50-> Hits: 232, Late: 0, Early: 0, Misses: 0
e54-> Hits: 1877, Late: 171, Early: 0, Misses: 9
e58-> Hits: 163, Late: 0, Early: 0, Misses: 0
e59-> Hits: 1260, Late: 13, Early: 0, Misses: 0
e5b-> Hits: 1102, Late: 0, Early: 0, Misses: 0
e5d-> Hits: 779, Late: 415, Early: 0, Misses: 0
e5e-> Hits: 1117, Late: 0, Early: 0, Misses: 0
e5f-> Hits: 11, Late: 0, Early: 0, Misses: 0
e60-> Hits: 374749, Late: 24, Early: 0, Misses: 4
e61-> Hits: 73, Late: 0, Early: 0, Misses: 160
e62-> Hits: 2996, Late: 0, Early: 0, Misses: 5
e64-> Hits: 1360, Late: 0, Early: 0, Misses: 0
e66-> Hits: 94, Late: 0, Early: 0, Misses: 0
e68-> Hits: 372054, Late: 0, Early: 0, Misses: 0
e69-> Hits: 3079, Late: 50, Early: 0, Misses: 5
e6a-> Hits: 62, Late: 0, Early: 0, Misses: 0
e6b-> Hits: 619, Late: 714, Early: 0, Misses: 0
e6c-> Hits: 3305, Late: 54, Early: 0, Misses: 0
e6d-> Hits: 1107, Late: 0, Early: 0, Misses: 0
e6f-> Hits: 374824, Late: 1, Early: 0, Misses: 0
e70-> Hits: 232, Late: 0, Early: 0, Misses: 0
e71-> Hits: 2953, Late: 1, Early: 0, Misses: 0
e73-> Hits: 374708, Late: 2, Early: 0, Misses: 6
e74-> Hits: 918, Late: 3, Early: 0, Misses: 2
e75-> Hits: 1108, Late: 0, Early: 0, Misses: 0
e76-> Hits: 1108, Late: 0, Early: 0, Misses: 0
e77-> Hits: 48, Late: 0, Early: 0, Misses: 0
e78-> Hits: 2929, Late: 0, Early: 0, Misses: 0
e79-> Hits: 8473, Late: 0, Early: 0, Misses: 0
e7a-> Hits: 12, Late: 0, Early: 0, Misses: 0
e7d-> Hits: 983, Late: 0, Early: 0, Misses: 0
e7e-> Hits: 1103, Late: 0, Early: 0, Misses: 0
e7f-> Hits: 2066, Late: 193, Early: 0, Misses: 0
e80-> Hits: 1669, Late: 0, Early: 0, Misses: 0
e82-> Hits: 1105, Late: 0, Early: 0, Misses: 0
e83-> Hits: 61, Late: 172, Early: 0, Misses: 0
e84-> Hits: 2213, Late: 0, Early: 0, Misses: 0
e85-> Hits: 575, Late: 1, Early: 0, Misses: 0
e86-> Hits: 3077, Late: 54, Early: 0, Misses: 0
e87-> Hits: 1644, Late: 25, Early: 0, Misses: 0
e8b-> Hits: 923, Late: 0, Early: 0, Misses: 0
e8c-> Hits: 339, Late: 44, Early: 0, Misses: 0
e8e-> Hits: 765, Late: 111, Early: 0, Misses: 0
e90-> Hits: 747, Late: 0, Early: 0, Misses: 0
e92-> Hits: 1, Late: 0, Early: 0, Misses: 0
e93-> Hits: 2, Late: 0, Early: 0, Misses: 0
e96-> Hits: 923, Late: 0, Early: 0, Misses: 0
e97-> Hits: 262, Late: 0, Early: 0, Misses: 0
e98-> Hits: 1191, Late: 0, Early: 0, Misses: 0
e9a-> Hits: 232, Late: 0, Early: 0, Misses: 0
e9c-> Hits: 2197, Late: 60, Early: 0, Misses: 1
ea3-> Hits: 233, Late: 0, Early: 0, Misses: 0
ea4-> Hits: 38, Late: 1, Early: 0, Misses: 194
ea5-> Hits: 340, Late: 0, Early: 0, Misses: 0
ea6-> Hits: 233, Late: 0, Early: 0, Misses: 0
ea7-> Hits: 1, Late: 0, Early: 0, Misses: 0
ea8-> Hits: 234, Late: 0, Early: 0, Misses: 0
ea9-> Hits: 2063, Late: 411, Early: 0, Misses: 120
eaa-> Hits: 234, Late: 0, Early: 0, Misses: 0
eac-> Hits: 1, Late: 0, Early: 0, Misses: 0
eaf-> Hits: 233, Late: 0, Early: 0, Misses: 0
eb0-> Hits: 1156, Late: 0, Early: 0, Misses: 0
eb1-> Hits: 233, Late: 0, Early: 0, Misses: 0
eb2-> Hits: 233, Late: 0, Early: 0, Misses: 0
eb3-> Hits: 340, Late: 0, Early: 0, Misses: 0
eb4-> Hits: 233, Late: 0, Early: 0, Misses: 0
eb5-> Hits: 24, Late: 208, Early: 0, Misses: 0
eb8-> Hits: 564, Late: 232, Early: 0, Misses: 0
ebb-> Hits: 6, Late: 227, Early: 0, Misses: 0
ebc-> Hits: 17, Late: 0, Early: 0, Misses: 0
ebd-> Hits: 923, Late: 0, Early: 0, Misses: 0
ebe-> Hits: 564, Late: 0, Early: 0, Misses: 0
ebf-> Hits: 208, Late: 0, Early: 0, Misses: 0
ec0-> Hits: 923, Late: 0, Early: 0, Misses: 0
ec2-> Hits: 136, Late: 47, Early: 0, Misses: 50
ec4-> Hits: 1165, Late: 0, Early: 0, Misses: 0
ec5-> Hits: 49, Late: 9, Early: 0, Misses: 195
ec7-> Hits: 233, Late: 0, Early: 0, Misses: 0
ec8-> Hits: 15, Late: 218, Early: 0, Misses: 0
ec9-> Hits: 515, Late: 0, Early: 0, Misses: 0
ecb-> Hits: 233, Late: 0, Early: 0, Misses: 0
ecd-> Hits: 942, Late: 0, Early: 0, Misses: 0
ece-> Hits: 1139, Late: 0, Early: 0, Misses: 0
ecf-> Hits: 792, Late: 16, Early: 0, Misses: 16
ed0-> Hits: 11184, Late: 1084, Early: 0, Misses: 192
ed2-> Hits: 1070, Late: 15, Early: 0, Misses: 0
ed3-> Hits: 1205, Late: 0, Early: 0, Misses: 0
ed4-> Hits: 15907, Late: 2931, Early: 0, Misses: 186
ed6-> Hits: 9, Late: 224, Early: 0, Misses: 0
eda-> Hits: 232, Late: 0, Early: 0, Misses: 0
edb-> Hits: 300, Late: 0, Early: 0, Misses: 0
edd-> Hits: 329, Late: 0, Early: 0, Misses: 0
edf-> Hits: 232, Late: 0, Early: 0, Misses: 0
ee0-> Hits: 413, Late: 0, Early: 0, Misses: 0
ee1-> Hits: 270, Late: 0, Early: 0, Misses: 0
ee2-> Hits: 232, Late: 0, Early: 0, Misses: 0
ee3-> Hits: 1976, Late: 52, Early: 0, Misses: 11
ee4-> Hits: 232, Late: 0, Early: 0, Misses: 0
ee5-> Hits: 282, Late: 0, Early: 0, Misses: 0
ee7-> Hits: 15611, Late: 3042, Early: 0, Misses: 410
ee8-> Hits: 232, Late: 0, Early: 0, Misses: 0
ee9-> Hits: 206, Late: 9, Early: 0, Misses: 0
eea-> Hits: 4, Late: 0, Early: 0, Misses: 0
eeb-> Hits: 6090, Late: 1096, Early: 0, Misses: 132
eed-> Hits: 282, Late: 0, Early: 0, Misses: 0
eef-> Hits: 16657, Late: 1903, Early: 0, Misses: 373
ef0-> Hits: 473, Late: 0, Early: 0, Misses: 0
ef2-> Hits: 232, Late: 0, Early: 0, Misses: 0
ef3-> Hits: 16042, Late: 3010, Early: 0, Misses: 177
ef4-> Hits: 11, Late: 222, Early: 0, Misses: 0
ef5-> Hits: 440, Late: 0, Early: 0, Misses: 0
ef7-> Hits: 232, Late: 0, Early: 0, Misses: 0
ef9-> Hits: 326, Late: 0, Early: 0, Misses: 0
efa-> Hits: 551, Late: 0, Early: 0, Misses: 0
efb-> Hits: 232, Late: 0, Early: 0, Misses: 0
efc-> Hits: 232, Late: 0, Early: 0, Misses: 0
efd-> Hits: 59, Late: 0, Early: 0, Misses: 0
efe-> Hits: 1925, Late: 5, Early: 0, Misses: 0
f00-> Hits: 1259, Late: 0, Early: 0, Misses: 0
f01-> Hits: 89, Late: 51, Early: 0, Misses: 5
f02-> Hits: 1298, Late: 0, Early: 0, Misses: 0
f03-> Hits: 81, Late: 0, Early: 0, Misses: 0
f06-> Hits: 746, Late: 1, Early: 0, Misses: 0
f08-> Hits: 582, Late: 0, Early: 0, Misses: 0
f09-> Hits: 31, Late: 0, Early: 0, Misses: 0
f0a-> Hits: 233, Late: 0, Early: 0, Misses: 0
f0d-> Hits: 150, Late: 0, Early: 0, Misses: 0
f0f-> Hits: 977, Late: 3, Early: 0, Misses: 0
f11-> Hits: 149, Late: 0, Early: 0, Misses: 0
f14-> Hits: 584, Late: 0, Early: 0, Misses: 0
f15-> Hits: 896, Late: 207, Early: 0, Misses: 0
f16-> Hits: 233, Late: 0, Early: 0, Misses: 0
f17-> Hits: 591, Late: 0, Early: 0, Misses: 0
f19-> Hits: 734, Late: 0, Early: 0, Misses: 0
f1a-> Hits: 53, Late: 2, Early: 0, Misses: 0
f1b-> Hits: 768, Late: 0, Early: 0, Misses: 0
f1c-> Hits: 747, Late: 0, Early: 0, Misses: 0
f1d-> Hits: 824, Late: 0, Early: 0, Misses: 0
f26-> Hits: 615, Late: 0, Early: 0, Misses: 0
f27-> Hits: 44, Late: 10, Early: 0, Misses: 0
f2a-> Hits: 3, Late: 0, Early: 0, Misses: 0
f2e-> Hits: 13, Late: 220, Early: 0, Misses: 0
f32-> Hits: 233, Late: 0, Early: 0, Misses: 0
f34-> Hits: 7, Late: 3, Early: 0, Misses: 0
f40-> Hits: 233, Late: 0, Early: 0, Misses: 0
f50-> Hits: 62, Late: 6, Early: 0, Misses: 0
f53-> Hits: 1, Late: 232, Early: 0, Misses: 0
f54-> Hits: 24, Late: 208, Early: 0, Misses: 0
f57-> Hits: 747, Late: 0, Early: 0, Misses: 0
f58-> Hits: 41, Late: 0, Early: 0, Misses: 0
f5d-> Hits: 194, Late: 38, Early: 0, Misses: 0
f60-> Hits: 465, Late: 0, Early: 0, Misses: 0
f61-> Hits: 674, Late: 232, Early: 0, Misses: 0
f64-> Hits: 1070, Late: 269, Early: 0, Misses: 1
f68-> Hits: 238, Late: 132, Early: 0, Misses: 0
f6b-> Hits: 1115, Late: 31, Early: 0, Misses: 0
f6c-> Hits: 167, Late: 0, Early: 0, Misses: 0
f70-> Hits: 9131, Late: 1245, Early: 0, Misses: 24
f73-> Hits: 183, Late: 49, Early: 0, Misses: 0
f74-> Hits: 972, Late: 174, Early: 0, Misses: 0
f76-> Hits: 747, Late: 0, Early: 0, Misses: 0
f78-> Hits: 2773, Late: 196, Early: 0, Misses: 2
f79-> Hits: 232, Late: 0, Early: 0, Misses: 0
f7b-> Hits: 9171, Late: 73, Early: 0, Misses: 4
f7d-> Hits: 116, Late: 1, Early: 0, Misses: 0
f7e-> Hits: 575, Late: 0, Early: 0, Misses: 0
f7f-> Hits: 5290, Late: 273, Early: 0, Misses: 4
f81-> Hits: 1166, Late: 82, Early: 0, Misses: 0
f82-> Hits: 2517, Late: 212, Early: 0, Misses: 1
f83-> Hits: 16056, Late: 3000, Early: 0, Misses: 591
f85-> Hits: 1071, Late: 0, Early: 0, Misses: 0
f87-> Hits: 1095, Late: 0, Early: 0, Misses: 0
f88-> Hits: 1100, Late: 0, Early: 0, Misses: 0
f8d-> Hits: 14921, Late: 2011, Early: 0, Misses: 354
f90-> Hits: 725, Late: 27, Early: 0, Misses: 0
f93-> Hits: 2026, Late: 0, Early: 0, Misses: 0
f95-> Hits: 232, Late: 0, Early: 0, Misses: 0
f97-> Hits: 646, Late: 3, Early: 0, Misses: 0
f9c-> Hits: 2485, Late: 229, Early: 0, Misses: 16
f9d-> Hits: 35, Late: 23, Early: 0, Misses: 0
f9e-> Hits: 10615, Late: 289, Early: 0, Misses: 1
fa0-> Hits: 313, Late: 0, Early: 0, Misses: 0
fa1-> Hits: 835, Late: 307, Early: 0, Misses: 4
fa4-> Hits: 1101, Late: 353, Early: 0, Misses: 4
fa8-> Hits: 1376, Late: 35, Early: 0, Misses: 1
fab-> Hits: 8, Late: 0, Early: 0, Misses: 0
fac-> Hits: 750, Late: 0, Early: 0, Misses: 0
faf-> Hits: 1100, Late: 0, Early: 0, Misses: 0
fb0-> Hits: 2988, Late: 523, Early: 0, Misses: 0
fb2-> Hits: 3051, Late: 0, Early: 0, Misses: 0
fb3-> Hits: 3716, Late: 0, Early: 0, Misses: 0
fb4-> Hits: 2761, Late: 0, Early: 0, Misses: 0
fb5-> Hits: 9536, Late: 3, Early: 0, Misses: 0
fb9-> Hits: 256, Late: 19, Early: 0, Misses: 0
fba-> Hits: 6, Late: 0, Early: 0, Misses: 0
fbb-> Hits: 1126, Late: 0, Early: 0, Misses: 0
fbc-> Hits: 232, Late: 0, Early: 0, Misses: 0
fbd-> Hits: 261, Late: 0, Early: 0, Misses: 0
fbf-> Hits: 1055, Late: 503, Early: 0, Misses: 0
fc1-> Hits: 232, Late: 0, Early: 0, Misses: 0
fc2-> Hits: 747, Late: 0, Early: 0, Misses: 0
fc3-> Hits: 989, Late: 96, Early: 0, Misses: 0
fc5-> Hits: 232, Late: 0, Early: 0, Misses: 0
fc7-> Hits: 5718, Late: 2207, Early: 0, Misses: 27
fc8-> Hits: 1126, Late: 0, Early: 0, Misses: 0
fcc-> Hits: 1033, Late: 0, Early: 0, Misses: 0
fce-> Hits: 6887, Late: 207, Early: 0, Misses: 5
fd2-> Hits: 751, Late: 500, Early: 0, Misses: 0
fd3-> Hits: 1524, Late: 0, Early: 0, Misses: 0
fd5-> Hits: 435, Late: 0, Early: 0, Misses: 0
fd6-> Hits: 458, Late: 0, Early: 0, Misses: 0
fd7-> Hits: 637, Late: 0, Early: 0, Misses: 0
fd8-> Hits: 1096, Late: 0, Early: 0, Misses: 0
fd9-> Hits: 398, Late: 0, Early: 0, Misses: 0
fda-> Hits: 7509, Late: 0, Early: 0, Misses: 0
fdb-> Hits: 398, Late: 0, Early: 0, Misses: 0
fdc-> Hits: 1440, Late: 0, Early: 0, Misses: 0
fdf-> Hits: 11, Late: 0, Early: 0, Misses: 0
fe0-> Hits: 1986, Late: 0, Early: 0, Misses: 0
fe4-> Hits: 876, Late: 0, Early: 0, Misses: 4
fe7-> Hits: 1108, Late: 0, Early: 0, Misses: 0
fe8-> Hits: 7, Late: 0, Early: 0, Misses: 0
fe9-> Hits: 3, Late: 0, Early: 0, Misses: 4
feb-> Hits: 18, Late: 0, Early: 0, Misses: 0
fec-> Hits: 115, Late: 1, Early: 0, Misses: 0
fed-> Hits: 7, Late: 0, Early: 0, Misses: 0
fee-> Hits: 16, Late: 0, Early: 0, Misses: 0
fef-> Hits: 7, Late: 0, Early: 0, Misses: 0
ff0-> Hits: 9227, Late: 311, Early: 0, Misses: 0
ff1-> Hits: 735, Late: 0, Early: 0, Misses: 2
ff2-> Hits: 7, Late: 0, Early: 0, Misses: 0
ff3-> Hits: 15, Late: 0, Early: 0, Misses: 0
ff5-> Hits: 339, Late: 95, Early: 0, Misses: 0
ff7-> Hits: 52, Late: 0, Early: 0, Misses: 0
ff8-> Hits: 875, Late: 5, Early: 0, Misses: 0
ff9-> Hits: 486, Late: 473, Early: 0, Misses: 0
ffd-> Hits: 297, Late: 778, Early: 0, Misses: 0
Total misses (from ip) 2342994
Total accesses (misses) 18714100 2342994
Pref: Addr 0 IP 0 Current 0

DRAM Statistics
 CHANNEL 0
 RQ ROW_BUFFER_HIT:     968696  ROW_BUFFER_MISS:     552516
 DBUS_CONGESTED:        327
 WQ ROW_BUFFER_HIT:       1131  ROW_BUFFER_MISS:      12944  FULL:          0

 AVG_CONGESTED_CYCLE: 4
 All warmup complete: 2
Channel 0 Bank busy for read cycles: 0
Channel 0 Bank busy for write cycles: 0
Channel 0
Rank 0
0banks busy for read cycles: 82153797
0banks busy for write cycles: 11580
1banks busy for read cycles: 30769739
1banks busy for write cycles: 1973521
2banks busy for read cycles: 17186334
2banks busy for write cycles: 237085
3banks busy for read cycles: 10061864
3banks busy for write cycles: 49133
4banks busy for read cycles: 5407257
4banks busy for write cycles: 15375
5banks busy for read cycles: 2070205
5banks busy for write cycles: 3749
6banks busy for read cycles: 529511
6banks busy for write cycles: 541
7banks busy for read cycles: 85895
7banks busy for write cycles: 309
8banks busy for read cycles: 28894
8banks busy for write cycles: 0

CPU 0 Branch Prediction Accuracy: 94.9771% MPKI: 13.0224 Average ROB Occupancy at Mispredict: 36.8964
Branch types
NOT_BRANCH: 37037113 74.0742%
BRANCH_DIRECT_JUMP: 125745 0.25149%
BRANCH_INDIRECT: 22046 0.044092%
BRANCH_CONDITIONAL: 11639280 23.2786%
BRANCH_DIRECT_CALL: 323608 0.647216%
BRANCH_INDIRECT_CALL: 264324 0.528648%
BRANCH_RETURN: 587932 1.17586%
BRANCH_OTHER: 0 0%

DRAM PAGES: 1048576
Allocated PAGES: 11043
