
*** ChampSim Multicore Out-of-Order Simulator ***

Warmup Instructions: 50000000
Simulation Instructions: 50000000
Number of CPUs: 1
LLC sets: 2048
LLC ways: 16
Off-chip DRAM Size: 4096 MB Channels: 1 Width: 64-bit Data Rate: 6400 MT/s
CPU 0 runs ./tracer/traces/623.xalancbmk_s-10B.champsimtrace.xz
.xz
CPU 0 Bimodal branch predictor
BTB has LRU replacement policy
ITLB has LRU replacement policy
DTLB has LRU replacement policy
STLB has LRU replacement policy
L1I has LRU replacement policy
CPU 0 L1D Berti prefetcher
L1D has LRU replacement policy
IP_Table L2 entries: 1024
Initialize SRRIP state for L2C
Initialize SRRIP state
Heartbeat CPU 0 instructions: 10000003 cycles: 3083468 heartbeat IPC: 3.2431 cumulative IPC: 3.2431 (Simulation time: 0 hr 1 min 16 sec) 
Heartbeat CPU 0 instructions: 20000000 cycles: 6147685 heartbeat IPC: 3.26348 cumulative IPC: 3.25326 (Simulation time: 0 hr 2 min 34 sec) 
Heartbeat CPU 0 instructions: 30000001 cycles: 9229658 heartbeat IPC: 3.24468 cumulative IPC: 3.25039 (Simulation time: 0 hr 3 min 48 sec) 
Heartbeat CPU 0 instructions: 40000003 cycles: 12318545 heartbeat IPC: 3.23741 cumulative IPC: 3.24714 (Simulation time: 0 hr 4 min 47 sec) 
Heartbeat CPU 0 instructions: 50000003 cycles: 15425480 heartbeat IPC: 3.21861 cumulative IPC: 3.24139 (Simulation time: 0 hr 5 min 53 sec) 

Warmup complete CPU 0 instructions: 50000003 cycles: 15425480 (Simulation time: 0 hr 5 min 53 sec) 

Heartbeat CPU 0 instructions: 60000002 cycles: 46180085 heartbeat IPC: 0.325155 cumulative IPC: 0.325155 (Simulation time: 0 hr 8 min 6 sec) 
Heartbeat CPU 0 instructions: 70000000 cycles: 77117045 heartbeat IPC: 0.323238 cumulative IPC: 0.324193 (Simulation time: 0 hr 10 min 42 sec) 
Heartbeat CPU 0 instructions: 80000002 cycles: 108052497 heartbeat IPC: 0.323254 cumulative IPC: 0.32388 (Simulation time: 0 hr 13 min 22 sec) 
Heartbeat CPU 0 instructions: 90000000 cycles: 138034430 heartbeat IPC: 0.333534 cumulative IPC: 0.32624 (Simulation time: 0 hr 15 min 22 sec) 
Heartbeat CPU 0 instructions: 100000003 cycles: 169227608 heartbeat IPC: 0.320583 cumulative IPC: 0.325093 (Simulation time: 0 hr 16 min 47 sec) 
Finished CPU 0 instructions: 50000000 cycles: 153802128 cumulative IPC: 0.325093 (Simulation time: 0 hr 16 min 47 sec) 

ChampSim completed all CPUs

Region of Interest Statistics

CPU 0 cumulative IPC: 0.325093 instructions: 50000000 cycles: 153802128
ITLB TOTAL     ACCESS:    7794764  HIT:    7760855  MISS:      33909  HIT %:     99.565  MISS %:   0.435023   MPKI: 0.67818
ITLB LOAD TRANSLATION ACCESS:    7794764  HIT:    7760855  MISS:      33909  HIT %:     99.565  MISS %:   0.435023   MPKI: 0.67818
ITLB PREFETCH  REQUESTED:          0  ISSUED:          0  USEFUL:          0  USELESS:          0
ITLB USEFUL LOAD PREFETCHES:          0 PREFETCH ISSUED TO LOWER LEVEL:          0  ACCURACY: -nan
ITLB TIMELY PREFETCHES:          0 LATE PREFETCHES: 0 DROPPED PREFETCHES: 0
ITLB PREFETCHES SAME FILL-ORIGIN LEVEL: 0 DIFFERENT FILL-ORIGIN LEVEL: 0
ITLB AVERAGE MISS LATENCY: 11.9305 cycles
ITLB RQ	ACCESS:    8958407	FORWARD:          0	MERGED:    1155472	TO_CACHE:    7802935

DTLB TOTAL     ACCESS:   10405171  HIT:   10067860  MISS:     337311  HIT %:    96.7582  MISS %:    3.24176   MPKI: 6.74622
DTLB LOAD TRANSLATION ACCESS:   10405171  HIT:   10067860  MISS:     337311  HIT %:    96.7582  MISS %:    3.24176   MPKI: 6.74622
DTLB PREFETCH  REQUESTED:          0  ISSUED:          0  USEFUL:          0  USELESS:          0
DTLB USEFUL LOAD PREFETCHES:          0 PREFETCH ISSUED TO LOWER LEVEL:          0  ACCURACY: -nan
DTLB TIMELY PREFETCHES:          0 LATE PREFETCHES: 0 DROPPED PREFETCHES: 0
DTLB PREFETCHES SAME FILL-ORIGIN LEVEL: 0 DIFFERENT FILL-ORIGIN LEVEL: 0
DTLB AVERAGE MISS LATENCY: 16.5054 cycles
DTLB RQ	ACCESS:   11479648	FORWARD:          0	MERGED:    1046779	TO_CACHE:   10432869

STLB TOTAL     ACCESS:    5975147  HIT:    5718032  MISS:     257115  HIT %:    95.6969  MISS %:    4.30307   MPKI: 5.1423
STLB LOAD TRANSLATION ACCESS:     371220  HIT:     288243  MISS:      82977  HIT %:    77.6475  MISS %:    22.3525   MPKI: 1.65954
STLB TRANSLATION FROM L1D PREFETCHER ACCESS:    5603927  HIT:    5429789  MISS:     174138  HIT %:    96.8926  MISS %:    3.10743   MPKI: 3.48276
STLB PREFETCH  REQUESTED:          0  ISSUED:          0  USEFUL:     172453  USELESS:       1684
STLB USEFUL LOAD PREFETCHES:     172453 PREFETCH ISSUED TO LOWER LEVEL:          0  ACCURACY: inf
STLB TIMELY PREFETCHES:     172453 LATE PREFETCHES: 95 DROPPED PREFETCHES: 26620
STLB PREFETCHES SAME FILL-ORIGIN LEVEL: 0 DIFFERENT FILL-ORIGIN LEVEL: 0
STLB AVERAGE MISS LATENCY: 113.011 cycles
STLB RQ	ACCESS:    6650068	FORWARD:          0	MERGED:     635366	TO_CACHE:    6014702

STLB Hit, L1D data hit: 0
STLB Hit, L2C data hit: 0
STLB Hit, LLC data hit: 0
STLB Hit, LLC data miss: 0
STLB STLB hints to L2: 0
L1D TOTAL     ACCESS:   17370199  HIT:   14980360  MISS:    2389839  HIT %:    86.2417  MISS %:    13.7583   MPKI: 47.7968
L1D LOAD      ACCESS:    9037881  HIT:    7985919  MISS:    1051962  HIT %:    88.3605  MISS %:    11.6395   MPKI: 21.0392
L1D RFO       ACCESS:    2340839  HIT:    2317741  MISS:      23098  HIT %:    99.0133  MISS %:    0.98674   MPKI: 0.46196
L1D PREFETCH  ACCESS:    5991479  HIT:    4676700  MISS:    1314779  HIT %:    78.0559  MISS %:    21.9441   MPKI: 26.2956
AGUS PREFETCH L1 MISS: 0
L1D PREFETCH  REQUESTED:   13108902  ISSUED:   13108902  USEFUL:     305417  USELESS:    1009355
L1D USEFUL LOAD PREFETCHES:     305417 PREFETCH ISSUED TO LOWER LEVEL:    1333346  ACCURACY: 22.9061
L1D TIMELY PREFETCHES:     305417 LATE PREFETCHES: 18540 DROPPED PREFETCHES: 29743
L1D PREFETCHES SAME FILL-ORIGIN LEVEL: 1333346 DIFFERENT FILL-ORIGIN LEVEL: 0
L1D AVERAGE MISS LATENCY: 700812 cycles
L1D RQ	ACCESS:   14682044	FORWARD:          0	MERGED:    5536783	TO_CACHE:    9084669
L1D WQ	ACCESS:    2425925	FORWARD:      60611	MERGED:      30946	TO_CACHE:    2394979
L1D PQ	ACCESS:    6830054	FORWARD:          0	MERGED:     551187	TO_CACHE:    6278848

L1D UNIQUE REGIONS ACCESSED: 0
L1D REGIONS CONFLICTS: 0
L1D Cross Page Prefetch Requests: 0
L1D Same Page Prefetch Requests: 13840641
L1D ROI Sum of L1D PQ occupancy: 108348651
L1D PREFETCHES PUSHED FROM L2C: 0
L1I TOTAL     ACCESS:    8909798  HIT:    8733748  MISS:     176050  HIT %:    98.0241  MISS %:    1.97591   MPKI: 3.521
L1I LOAD      ACCESS:    8909798  HIT:    8733748  MISS:     176050  HIT %:    98.0241  MISS %:    1.97591   MPKI: 3.521
L1I PREFETCH  REQUESTED:          0  ISSUED:          0  USEFUL:          0  USELESS:          0
L1I USEFUL LOAD PREFETCHES:          0 PREFETCH ISSUED TO LOWER LEVEL:          0  ACCURACY: -nan
L1I TIMELY PREFETCHES:          0 LATE PREFETCHES: 0 DROPPED PREFETCHES: 0
L1I PREFETCHES SAME FILL-ORIGIN LEVEL: 0 DIFFERENT FILL-ORIGIN LEVEL: 0
L1I AVERAGE MISS LATENCY: 20.5127 cycles
L1I RQ	ACCESS:   15132015	FORWARD:          0	MERGED:    6173608	TO_CACHE:    8958407

BTB TOTAL     ACCESS:    8240387  HIT:    8162325  MISS:      78062  HIT %:    99.0527  MISS %:    0.94731   MPKI: 1.56124
BTB BRANCH_DIRECT_JUMP	ACCESS:     125745  HIT:     125105  MISS:        640
BTB BRANCH_INDIRECT	ACCESS:      22046  HIT:       8847  MISS:      13199
BTB BRANCH_CONDITIONAL	ACCESS:    6916732  HIT:    6913884  MISS:       2848
BTB BRANCH_DIRECT_CALL	ACCESS:     323608  HIT:     322533  MISS:       1075
BTB BRANCH_INDIRECT_CALL	ACCESS:     264324  HIT:     261288  MISS:       3036
BTB BRANCH_RETURN	ACCESS:     587932  HIT:     530668  MISS:      57264
BTB BRANCH_OTHER ACCESS:           0  HIT:          0  MISS:          0

L2C TOTAL     ACCESS:    2916187  HIT:     624330  MISS:    2291857  HIT %:    21.4091  MISS %:    78.5909   MPKI: 45.8371
L2C LOAD      ACCESS:    1209469  HIT:     250295  MISS:     959174  HIT %:    20.6946  MISS %:    79.3054   MPKI: 19.1835
L2C DATA LOAD MPKI: 18.4862
L2C INSTRUCTION LOAD MPKI: 0.69726
L2C RFO       ACCESS:      23066  HIT:      10812  MISS:      12254  HIT %:    46.8742  MISS %:    53.1258   MPKI: 0.24508
L2C PREFETCH  ACCESS:    1351637  HIT:      93025  MISS:    1258612  HIT %:     6.8824  MISS %:    93.1176   MPKI: 25.1722
AGUS PREFETCH L1 MISS: 0
L2C DATA PREFETCH MPKI: 25.1722
L2C INSTRUCTION PREFETCH MPKI: 0
L2C WRITEBACK ACCESS:      47083  HIT:      46798  MISS:        285  HIT %:    99.3947  MISS %:   0.605314   MPKI: 0.0057
L2C LOAD TRANSLATION ACCESS:      83245  HIT:      73380  MISS:       9865  HIT %:    88.1494  MISS %:    11.8506   MPKI: 0.1973
L2C TRANSLATION FROM L1D PREFETCHER ACCESS:     201687  HIT:     150020  MISS:      51667  HIT %:    74.3826  MISS %:    25.6174   MPKI: 1.03334
L2C PREFETCH  REQUESTED:      20011  ISSUED:      20011  USEFUL:      72387  USELESS:    1237863
L2C USEFUL LOAD PREFETCHES:      72387 PREFETCH ISSUED TO LOWER LEVEL:    1258784  ACCURACY: 5.75055
L2C TIMELY PREFETCHES:      72387 LATE PREFETCHES: 172 DROPPED PREFETCHES: 0
L2C PREFETCHES SAME FILL-ORIGIN LEVEL: 8080 DIFFERENT FILL-ORIGIN LEVEL: 0
L2C AVERAGE MISS LATENCY: 110.147 cycles
L2C RQ	ACCESS:    1517475	FORWARD:          0	MERGED:          0	TO_CACHE:    1517467
L2C WQ	ACCESS:      47083	FORWARD:          8	MERGED:          0	TO_CACHE:      47083
L2C PQ	ACCESS:    1353357	FORWARD:          0	MERGED:        753	TO_CACHE:    1352604

L2C Instructions Evicting Data 33323
L2C Translations Evicting Data 59457
L2C Data Evicting Data 2102364
L2C Instructions Evicting Instructions 635
L2C Translations Evicting Instructions 742
L2C Data Evicting Instructions 33494
L2C Instructions Evicting Translations 905
L2C Translations Evicting Translations 1333
L2C Data Evicting Translations 59319
L2C Dense regions hint from L2: 0
PSCL5 TOTAL     ACCESS:     283739  HIT:     283739  MISS:          0  HIT %:        100  MISS %:          0   MPKI: 0
PSCL5 LOAD TRANSLATION ACCESS:      82886  HIT:      82886  MISS:          0  HIT %:        100  MISS %:          0   MPKI: 0
PSCL5 TRANSLATION FROM L1D PREFETCHER ACCESS:     200853  HIT:     200853  MISS:          0  HIT %:        100  MISS %:          0   MPKI: 0
PSCL5 PREFETCH  REQUESTED:          0  ISSUED:          0  USEFUL:          0  USELESS:          0
PSCL5 USEFUL LOAD PREFETCHES:          0 PREFETCH ISSUED TO LOWER LEVEL:          0  ACCURACY: -nan
PSCL5 TIMELY PREFETCHES:          0 LATE PREFETCHES: 0 DROPPED PREFETCHES: 0
PSCL5 PREFETCHES SAME FILL-ORIGIN LEVEL: 0 DIFFERENT FILL-ORIGIN LEVEL: 0

PSCL4 TOTAL     ACCESS:     283739  HIT:     283739  MISS:          0  HIT %:        100  MISS %:          0   MPKI: 0
PSCL4 LOAD TRANSLATION ACCESS:      82886  HIT:      82886  MISS:          0  HIT %:        100  MISS %:          0   MPKI: 0
PSCL4 TRANSLATION FROM L1D PREFETCHER ACCESS:     200853  HIT:     200853  MISS:          0  HIT %:        100  MISS %:          0   MPKI: 0
PSCL4 PREFETCH  REQUESTED:          0  ISSUED:          0  USEFUL:          0  USELESS:          0
PSCL4 USEFUL LOAD PREFETCHES:          0 PREFETCH ISSUED TO LOWER LEVEL:          0  ACCURACY: -nan
PSCL4 TIMELY PREFETCHES:          0 LATE PREFETCHES: 0 DROPPED PREFETCHES: 0
PSCL4 PREFETCHES SAME FILL-ORIGIN LEVEL: 0 DIFFERENT FILL-ORIGIN LEVEL: 0

PSCL3 TOTAL     ACCESS:     283739  HIT:     283739  MISS:          0  HIT %:        100  MISS %:          0   MPKI: 0
PSCL3 LOAD TRANSLATION ACCESS:      82886  HIT:      82886  MISS:          0  HIT %:        100  MISS %:          0   MPKI: 0
PSCL3 TRANSLATION FROM L1D PREFETCHER ACCESS:     200853  HIT:     200853  MISS:          0  HIT %:        100  MISS %:          0   MPKI: 0
PSCL3 PREFETCH  REQUESTED:          0  ISSUED:          0  USEFUL:          0  USELESS:          0
PSCL3 USEFUL LOAD PREFETCHES:          0 PREFETCH ISSUED TO LOWER LEVEL:          0  ACCURACY: -nan
PSCL3 TIMELY PREFETCHES:          0 LATE PREFETCHES: 0 DROPPED PREFETCHES: 0
PSCL3 PREFETCHES SAME FILL-ORIGIN LEVEL: 0 DIFFERENT FILL-ORIGIN LEVEL: 0

PSCL2 TOTAL     ACCESS:     283739  HIT:     282546  MISS:       1193  HIT %:    99.5795  MISS %:   0.420457   MPKI: 0.02386
PSCL2 LOAD TRANSLATION ACCESS:      83720  HIT:      82527  MISS:       1193  HIT %:     98.575  MISS %:    1.42499   MPKI: 0.02386
PSCL2 TRANSLATION FROM L1D PREFETCHER ACCESS:     200019  HIT:     200019  MISS:          0  HIT %:        100  MISS %:          0   MPKI: 0
PSCL2 PREFETCH  REQUESTED:          0  ISSUED:          0  USEFUL:          0  USELESS:          0
PSCL2 USEFUL LOAD PREFETCHES:          0 PREFETCH ISSUED TO LOWER LEVEL:          0  ACCURACY: -nan
PSCL2 TIMELY PREFETCHES:          0 LATE PREFETCHES: 0 DROPPED PREFETCHES: 0
PSCL2 PREFETCHES SAME FILL-ORIGIN LEVEL: 0 DIFFERENT FILL-ORIGIN LEVEL: 0

LLC TOTAL     ACCESS:    2312014  HIT:     775119  MISS:    1536895  HIT %:    33.5257  MISS %:    66.4743   MPKI: 30.7379
LLC LOAD      ACCESS:     959002  HIT:     579206  MISS:     379796  HIT %:    60.3967  MISS %:    39.6033   MPKI: 7.59592
LLC RFO       ACCESS:      12254  HIT:       4239  MISS:       8015  HIT %:    34.5928  MISS %:    65.4072   MPKI: 0.1603
LLC PREFETCH  ACCESS:    1258784  HIT:     140867  MISS:    1117917  HIT %:    11.1907  MISS %:    88.8093   MPKI: 22.3583
AGUS PREFETCH L1 MISS: 0
LLC WRITEBACK ACCESS:      20442  HIT:      10070  MISS:      10372  HIT %:    49.2613  MISS %:    50.7387   MPKI: 0.20744
LLC LOAD TRANSLATION ACCESS:       9865  HIT:       7095  MISS:       2770  HIT %:    71.9209  MISS %:    28.0791   MPKI: 0.0554
LLC TRANSLATION FROM L1D PREFETCHER ACCESS:      51667  HIT:      33642  MISS:      18025  HIT %:    65.1131  MISS %:    34.8869   MPKI: 0.3605
LLC PREFETCH  REQUESTED:          0  ISSUED:          0  USEFUL:        364  USELESS:    1135663
LLC USEFUL LOAD PREFETCHES:        364 PREFETCH ISSUED TO LOWER LEVEL:    1117917  ACCURACY: 0.0325606
LLC TIMELY PREFETCHES:        364 LATE PREFETCHES: 0 DROPPED PREFETCHES: 0
LLC PREFETCHES SAME FILL-ORIGIN LEVEL: 0 DIFFERENT FILL-ORIGIN LEVEL: 0
LLC AVERAGE MISS LATENCY: 119.527 cycles
LLC RQ	ACCESS:    1032788	FORWARD:          0	MERGED:          0	TO_CACHE:    1032788
LLC WQ	ACCESS:      20442	FORWARD:          0	MERGED:          0	TO_CACHE:      20442
LLC PQ	ACCESS:    1258784	FORWARD:          0	MERGED:          0	TO_CACHE:    1258784

LLC Dense regions hint to LLC: 0

RAW hits: 60014
Loads Generated: 14742059
Loads sent to L1D: 14682044
Stores Generated: 2425920
Stores sent to L1D: 2425925
Major fault: 0 Minor fault: 11043
Allocated PAGES: 11043
CPU 0 L1D berti prefetcher final stats
0-> Hits: 60, Late: 0, Early: 0, Misses: 0
2-> Hits: 285, Late: 0, Early: 0, Misses: 0
4-> Hits: 11, Late: 0, Early: 0, Misses: 0
5-> Hits: 29, Late: 0, Early: 0, Misses: 0
7-> Hits: 44, Late: 311, Early: 0, Misses: 0
9-> Hits: 0, Late: 0, Early: 0, Misses: 3
a-> Hits: 145, Late: 0, Early: 0, Misses: 0
e-> Hits: 555, Late: 0, Early: 0, Misses: 0
12-> Hits: 2, Late: 0, Early: 0, Misses: 0
15-> Hits: 1, Late: 0, Early: 0, Misses: 0
17-> Hits: 282, Late: 0, Early: 0, Misses: 0
19-> Hits: 553, Late: 0, Early: 0, Misses: 0
1c-> Hits: 232, Late: 0, Early: 0, Misses: 0
1d-> Hits: 232, Late: 0, Early: 0, Misses: 0
1e-> Hits: 274, Late: 0, Early: 0, Misses: 0
1f-> Hits: 232, Late: 0, Early: 0, Misses: 0
20-> Hits: 300, Late: 0, Early: 0, Misses: 0
21-> Hits: 235, Late: 0, Early: 0, Misses: 0
23-> Hits: 232, Late: 0, Early: 0, Misses: 0
24-> Hits: 146, Late: 0, Early: 0, Misses: 0
25-> Hits: 447, Late: 0, Early: 0, Misses: 0
26-> Hits: 514, Late: 0, Early: 0, Misses: 0
29-> Hits: 9386, Late: 79, Early: 0, Misses: 0
2b-> Hits: 472, Late: 0, Early: 0, Misses: 0
2c-> Hits: 1152, Late: 0, Early: 0, Misses: 0
2f-> Hits: 233, Late: 0, Early: 0, Misses: 0
30-> Hits: 970, Late: 11, Early: 0, Misses: 0
32-> Hits: 49, Late: 0, Early: 0, Misses: 0
33-> Hits: 2419, Late: 902, Early: 0, Misses: 10
34-> Hits: 0, Late: 1, Early: 0, Misses: 0
35-> Hits: 1126, Late: 0, Early: 0, Misses: 0
36-> Hits: 2, Late: 0, Early: 0, Misses: 0
37-> Hits: 4029, Late: 1, Early: 0, Misses: 189
38-> Hits: 11541, Late: 0, Early: 0, Misses: 0
3a-> Hits: 12067, Late: 0, Early: 0, Misses: 0
3b-> Hits: 1, Late: 0, Early: 0, Misses: 0
3c-> Hits: 12438, Late: 0, Early: 0, Misses: 0
3d-> Hits: 282, Late: 0, Early: 0, Misses: 0
3e-> Hits: 19639, Late: 1, Early: 0, Misses: 0
40-> Hits: 18831, Late: 205, Early: 0, Misses: 0
41-> Hits: 20156, Late: 0, Early: 0, Misses: 0
42-> Hits: 2, Late: 0, Early: 0, Misses: 0
45-> Hits: 196, Late: 27, Early: 0, Misses: 1
48-> Hits: 306, Late: 0, Early: 0, Misses: 0
49-> Hits: 657, Late: 0, Early: 0, Misses: 0
4a-> Hits: 210, Late: 13, Early: 0, Misses: 1
4d-> Hits: 209, Late: 23, Early: 0, Misses: 0
4f-> Hits: 1, Late: 0, Early: 0, Misses: 0
50-> Hits: 1836, Late: 151, Early: 0, Misses: 12
52-> Hits: 282, Late: 0, Early: 0, Misses: 0
53-> Hits: 11, Late: 0, Early: 0, Misses: 0
54-> Hits: 168, Late: 193, Early: 0, Misses: 13
55-> Hits: 757, Late: 106, Early: 0, Misses: 0
58-> Hits: 15, Late: 0, Early: 0, Misses: 0
59-> Hits: 1066, Late: 36, Early: 0, Misses: 0
5b-> Hits: 293, Late: 0, Early: 0, Misses: 0
5e-> Hits: 1099, Late: 49, Early: 0, Misses: 0
61-> Hits: 45, Late: 171, Early: 0, Misses: 16
63-> Hits: 34451, Late: 3, Early: 0, Misses: 0
65-> Hits: 480, Late: 44, Early: 0, Misses: 2
67-> Hits: 11, Late: 0, Early: 0, Misses: 0
68-> Hits: 49, Late: 233, Early: 0, Misses: 0
69-> Hits: 116, Late: 0, Early: 0, Misses: 0
6d-> Hits: 923, Late: 0, Early: 0, Misses: 0
6e-> Hits: 26, Late: 191, Early: 0, Misses: 15
71-> Hits: 11331, Late: 5, Early: 0, Misses: 0
75-> Hits: 3, Late: 0, Early: 0, Misses: 0
78-> Hits: 923, Late: 0, Early: 0, Misses: 0
80-> Hits: 86, Late: 172, Early: 0, Misses: 121
81-> Hits: 49, Late: 0, Early: 0, Misses: 0
83-> Hits: 1613, Late: 0, Early: 0, Misses: 0
84-> Hits: 1126, Late: 0, Early: 0, Misses: 0
85-> Hits: 313, Late: 0, Early: 0, Misses: 1
86-> Hits: 1126, Late: 0, Early: 0, Misses: 0
88-> Hits: 1887, Late: 162, Early: 0, Misses: 0
8a-> Hits: 1674, Late: 76, Early: 0, Misses: 0
8b-> Hits: 1535, Late: 49, Early: 0, Misses: 8
8c-> Hits: 804, Late: 189, Early: 0, Misses: 7
8d-> Hits: 5033, Late: 0, Early: 0, Misses: 2
8e-> Hits: 8788, Late: 0, Early: 0, Misses: 46
8f-> Hits: 11103, Late: 3, Early: 0, Misses: 0
90-> Hits: 1460, Late: 12, Early: 0, Misses: 1
91-> Hits: 11376, Late: 0, Early: 0, Misses: 0
92-> Hits: 3, Late: 0, Early: 0, Misses: 0
93-> Hits: 10317, Late: 0, Early: 0, Misses: 0
94-> Hits: 376, Late: 0, Early: 0, Misses: 0
95-> Hits: 11117, Late: 0, Early: 0, Misses: 0
96-> Hits: 3, Late: 0, Early: 0, Misses: 0
97-> Hits: 11356, Late: 1, Early: 0, Misses: 4
99-> Hits: 1, Late: 0, Early: 0, Misses: 0
9a-> Hits: 920, Late: 3, Early: 0, Misses: 0
9b-> Hits: 42, Late: 123, Early: 0, Misses: 0
9d-> Hits: 282, Late: 0, Early: 0, Misses: 0
9f-> Hits: 0, Late: 3, Early: 0, Misses: 0
a0-> Hits: 289, Late: 172, Early: 0, Misses: 3
a1-> Hits: 132, Late: 147, Early: 0, Misses: 3
a3-> Hits: 592, Late: 0, Early: 0, Misses: 0
a4-> Hits: 998, Late: 0, Early: 0, Misses: 0
a5-> Hits: 144, Late: 0, Early: 0, Misses: 0
a6-> Hits: 172, Late: 2, Early: 0, Misses: 4
a7-> Hits: 1032, Late: 597, Early: 0, Misses: 0
a9-> Hits: 1180, Late: 207, Early: 0, Misses: 0
aa-> Hits: 3, Late: 0, Early: 0, Misses: 0
ab-> Hits: 411, Late: 12, Early: 0, Misses: 0
ac-> Hits: 930, Late: 27, Early: 0, Misses: 0
ad-> Hits: 1306, Late: 30, Early: 0, Misses: 0
ae-> Hits: 1152, Late: 7, Early: 0, Misses: 0
af-> Hits: 232, Late: 0, Early: 0, Misses: 0
b0-> Hits: 4180, Late: 50, Early: 0, Misses: 0
b1-> Hits: 232, Late: 0, Early: 0, Misses: 0
b3-> Hits: 1133, Late: 22, Early: 0, Misses: 0
b4-> Hits: 484, Late: 0, Early: 0, Misses: 0
b7-> Hits: 5689, Late: 1, Early: 0, Misses: 5
b8-> Hits: 8, Late: 48, Early: 0, Misses: 0
b9-> Hits: 9990, Late: 522, Early: 0, Misses: 17
ba-> Hits: 325, Late: 0, Early: 0, Misses: 0
bb-> Hits: 7574, Late: 643, Early: 0, Misses: 0
bc-> Hits: 737, Late: 0, Early: 0, Misses: 0
bd-> Hits: 6493, Late: 925, Early: 0, Misses: 2
be-> Hits: 81, Late: 0, Early: 0, Misses: 0
c0-> Hits: 2696, Late: 0, Early: 0, Misses: 0
c1-> Hits: 574, Late: 0, Early: 0, Misses: 0
c2-> Hits: 55, Late: 1, Early: 0, Misses: 0
c4-> Hits: 507, Late: 0, Early: 0, Misses: 0
c8-> Hits: 1108, Late: 0, Early: 0, Misses: 0
c9-> Hits: 161, Late: 0, Early: 0, Misses: 0
ca-> Hits: 639, Late: 0, Early: 0, Misses: 0
cb-> Hits: 1121, Late: 0, Early: 0, Misses: 0
cd-> Hits: 1146, Late: 0, Early: 0, Misses: 0
ce-> Hits: 880, Late: 0, Early: 0, Misses: 0
cf-> Hits: 1146, Late: 0, Early: 0, Misses: 0
d0-> Hits: 10289, Late: 233, Early: 0, Misses: 3
d1-> Hits: 1244, Late: 0, Early: 0, Misses: 0
d2-> Hits: 1361, Late: 595, Early: 0, Misses: 0
d3-> Hits: 2028, Late: 0, Early: 0, Misses: 0
d4-> Hits: 279, Late: 0, Early: 0, Misses: 0
d5-> Hits: 7869, Late: 364, Early: 0, Misses: 0
d6-> Hits: 47, Late: 0, Early: 0, Misses: 0
d7-> Hits: 3860, Late: 322, Early: 0, Misses: 0
db-> Hits: 3045, Late: 0, Early: 0, Misses: 0
dc-> Hits: 1, Late: 0, Early: 0, Misses: 0
dd-> Hits: 9, Late: 0, Early: 0, Misses: 0
e0-> Hits: 692, Late: 0, Early: 0, Misses: 0
e4-> Hits: 11086, Late: 550, Early: 0, Misses: 1
e6-> Hits: 446, Late: 0, Early: 0, Misses: 0
e8-> Hits: 37, Late: 0, Early: 0, Misses: 0
e9-> Hits: 232, Late: 0, Early: 0, Misses: 0
ec-> Hits: 1108, Late: 0, Early: 0, Misses: 0
ed-> Hits: 871, Late: 0, Early: 0, Misses: 9
ef-> Hits: 2, Late: 0, Early: 0, Misses: 1
f0-> Hits: 1173, Late: 58, Early: 0, Misses: 0
f2-> Hits: 807, Late: 301, Early: 0, Misses: 0
f3-> Hits: 5, Late: 0, Early: 0, Misses: 0
f4-> Hits: 127, Late: 0, Early: 0, Misses: 0
f9-> Hits: 8752, Late: 216, Early: 0, Misses: 1
fa-> Hits: 0, Late: 0, Early: 0, Misses: 3
fb-> Hits: 1801, Late: 30, Early: 0, Misses: 0
fc-> Hits: 466, Late: 0, Early: 0, Misses: 0
fd-> Hits: 875, Late: 1, Early: 0, Misses: 4
fe-> Hits: 466, Late: 0, Early: 0, Misses: 0
100-> Hits: 466, Late: 0, Early: 0, Misses: 0
101-> Hits: 875, Late: 1, Early: 0, Misses: 7
102-> Hits: 2099, Late: 160, Early: 0, Misses: 0
103-> Hits: 25, Late: 0, Early: 0, Misses: 0
104-> Hits: 466, Late: 0, Early: 0, Misses: 0
105-> Hits: 466, Late: 0, Early: 0, Misses: 0
106-> Hits: 233, Late: 0, Early: 0, Misses: 0
10b-> Hits: 127, Late: 0, Early: 0, Misses: 0
10c-> Hits: 232, Late: 0, Early: 0, Misses: 0
10d-> Hits: 61, Late: 0, Early: 0, Misses: 0
10f-> Hits: 176, Late: 0, Early: 0, Misses: 3
110-> Hits: 828, Late: 0, Early: 0, Misses: 0
113-> Hits: 478, Late: 0, Early: 0, Misses: 0
115-> Hits: 10529, Late: 0, Early: 0, Misses: 0
116-> Hits: 26, Late: 0, Early: 0, Misses: 0
117-> Hits: 40, Late: 0, Early: 0, Misses: 0
11a-> Hits: 923, Late: 0, Early: 0, Misses: 0
11c-> Hits: 207, Late: 0, Early: 0, Misses: 0
11d-> Hits: 898, Late: 0, Early: 0, Misses: 0
120-> Hits: 282, Late: 0, Early: 0, Misses: 0
121-> Hits: 406, Late: 0, Early: 0, Misses: 0
122-> Hits: 280, Late: 0, Early: 0, Misses: 0
123-> Hits: 0, Late: 0, Early: 0, Misses: 1
126-> Hits: 20, Late: 0, Early: 0, Misses: 0
127-> Hits: 4, Late: 0, Early: 0, Misses: 0
129-> Hits: 10045, Late: 0, Early: 0, Misses: 0
12b-> Hits: 282, Late: 0, Early: 0, Misses: 0
12d-> Hits: 741, Late: 0, Early: 0, Misses: 0
12f-> Hits: 282, Late: 0, Early: 0, Misses: 0
130-> Hits: 1652, Late: 7, Early: 0, Misses: 0
131-> Hits: 4552, Late: 86, Early: 0, Misses: 11
134-> Hits: 3476, Late: 68, Early: 0, Misses: 0
135-> Hits: 810, Late: 0, Early: 0, Misses: 0
136-> Hits: 184, Late: 0, Early: 0, Misses: 0
137-> Hits: 1070, Late: 0, Early: 0, Misses: 0
138-> Hits: 186, Late: 0, Early: 0, Misses: 0
139-> Hits: 1108, Late: 0, Early: 0, Misses: 0
13f-> Hits: 194, Late: 0, Early: 0, Misses: 0
140-> Hits: 923, Late: 0, Early: 0, Misses: 0
141-> Hits: 280, Late: 0, Early: 0, Misses: 0
142-> Hits: 923, Late: 0, Early: 0, Misses: 0
144-> Hits: 925, Late: 0, Early: 0, Misses: 1
145-> Hits: 3, Late: 0, Early: 0, Misses: 0
146-> Hits: 926, Late: 0, Early: 0, Misses: 0
148-> Hits: 925, Late: 0, Early: 0, Misses: 1
149-> Hits: 923, Late: 0, Early: 0, Misses: 0
14a-> Hits: 3, Late: 0, Early: 0, Misses: 0
14c-> Hits: 251, Late: 0, Early: 0, Misses: 0
14d-> Hits: 6, Late: 0, Early: 0, Misses: 0
150-> Hits: 147, Late: 0, Early: 0, Misses: 0
152-> Hits: 10429, Late: 0, Early: 0, Misses: 0
153-> Hits: 10447, Late: 0, Early: 0, Misses: 0
154-> Hits: 10460, Late: 0, Early: 0, Misses: 0
156-> Hits: 1021, Late: 1, Early: 0, Misses: 0
158-> Hits: 1322, Late: 0, Early: 0, Misses: 0
15d-> Hits: 233, Late: 0, Early: 0, Misses: 0
15f-> Hits: 1108, Late: 0, Early: 0, Misses: 0
161-> Hits: 181, Late: 0, Early: 0, Misses: 0
163-> Hits: 1108, Late: 0, Early: 0, Misses: 0
164-> Hits: 3, Late: 0, Early: 0, Misses: 0
165-> Hits: 20, Late: 0, Early: 0, Misses: 0
169-> Hits: 6, Late: 0, Early: 0, Misses: 0
16a-> Hits: 233, Late: 0, Early: 0, Misses: 0
16b-> Hits: 226, Late: 0, Early: 0, Misses: 0
16d-> Hits: 1108, Late: 0, Early: 0, Misses: 0
16f-> Hits: 153, Late: 76, Early: 0, Misses: 4
172-> Hits: 19, Late: 0, Early: 0, Misses: 0
173-> Hits: 237, Late: 0, Early: 0, Misses: 0
176-> Hits: 287, Late: 0, Early: 0, Misses: 0
177-> Hits: 1, Late: 0, Early: 0, Misses: 0
178-> Hits: 362, Late: 66, Early: 0, Misses: 3
179-> Hits: 20, Late: 0, Early: 0, Misses: 0
17a-> Hits: 1388, Late: 0, Early: 0, Misses: 0
17c-> Hits: 3918, Late: 0, Early: 0, Misses: 0
17d-> Hits: 5767, Late: 0, Early: 0, Misses: 0
17f-> Hits: 6725, Late: 0, Early: 0, Misses: 0
181-> Hits: 1108, Late: 0, Early: 0, Misses: 0
182-> Hits: 137, Late: 85, Early: 0, Misses: 19
184-> Hits: 756, Late: 0, Early: 0, Misses: 0
185-> Hits: 1046, Late: 0, Early: 0, Misses: 0
186-> Hits: 109, Late: 0, Early: 0, Misses: 0
187-> Hits: 1093, Late: 0, Early: 0, Misses: 0
189-> Hits: 3287, Late: 577, Early: 0, Misses: 0
18a-> Hits: 153, Late: 0, Early: 0, Misses: 0
18b-> Hits: 867, Late: 1, Early: 0, Misses: 0
18d-> Hits: 203, Late: 0, Early: 0, Misses: 0
18e-> Hits: 233, Late: 0, Early: 0, Misses: 0
18f-> Hits: 2268, Late: 354, Early: 0, Misses: 2
190-> Hits: 1329, Late: 0, Early: 0, Misses: 0
193-> Hits: 4, Late: 0, Early: 0, Misses: 0
198-> Hits: 251, Late: 23, Early: 0, Misses: 0
19c-> Hits: 1982, Late: 365, Early: 0, Misses: 12
1a4-> Hits: 232, Late: 0, Early: 0, Misses: 0
1a7-> Hits: 233, Late: 0, Early: 0, Misses: 0
1aa-> Hits: 2960, Late: 542, Early: 0, Misses: 0
1ab-> Hits: 11, Late: 221, Early: 0, Misses: 0
1ad-> Hits: 2251, Late: 423, Early: 0, Misses: 23
1ae-> Hits: 2742, Late: 541, Early: 0, Misses: 2
1bb-> Hits: 582, Late: 13, Early: 0, Misses: 0
1c0-> Hits: 166, Late: 3, Early: 0, Misses: 0
1c2-> Hits: 1967, Late: 0, Early: 0, Misses: 0
1c3-> Hits: 1325, Late: 0, Early: 0, Misses: 0
1c4-> Hits: 1336, Late: 0, Early: 0, Misses: 0
1c5-> Hits: 2420, Late: 441, Early: 0, Misses: 0
1c7-> Hits: 464, Late: 0, Early: 0, Misses: 0
1c9-> Hits: 700, Late: 152, Early: 0, Misses: 2
1ca-> Hits: 12, Late: 0, Early: 0, Misses: 0
1cb-> Hits: 592, Late: 0, Early: 0, Misses: 0
1cc-> Hits: 2952, Late: 18, Early: 0, Misses: 0
1cd-> Hits: 666, Late: 0, Early: 0, Misses: 0
1cf-> Hits: 1217, Late: 5, Early: 0, Misses: 0
1d0-> Hits: 3007, Late: 135, Early: 0, Misses: 1
1d1-> Hits: 735, Late: 231, Early: 0, Misses: 0
1d4-> Hits: 3493, Late: 4, Early: 0, Misses: 3
1d7-> Hits: 24, Late: 0, Early: 0, Misses: 0
1e0-> Hits: 464, Late: 0, Early: 0, Misses: 0
1e3-> Hits: 9, Late: 0, Early: 0, Misses: 0
1e9-> Hits: 10488, Late: 0, Early: 0, Misses: 0
1ea-> Hits: 10494, Late: 0, Early: 0, Misses: 0
1f0-> Hits: 3128, Late: 0, Early: 0, Misses: 0
1f1-> Hits: 20, Late: 0, Early: 0, Misses: 0
1f5-> Hits: 537, Late: 19, Early: 0, Misses: 131
200-> Hits: 29, Late: 2, Early: 0, Misses: 0
202-> Hits: 3253, Late: 800, Early: 0, Misses: 4
203-> Hits: 2, Late: 0, Early: 0, Misses: 0
207-> Hits: 2434, Late: 0, Early: 0, Misses: 0
20e-> Hits: 2328, Late: 0, Early: 0, Misses: 0
210-> Hits: 842, Late: 3, Early: 0, Misses: 0
214-> Hits: 734, Late: 0, Early: 0, Misses: 0
215-> Hits: 2562, Late: 0, Early: 0, Misses: 0
218-> Hits: 693, Late: 199, Early: 0, Misses: 0
219-> Hits: 0, Late: 4, Early: 0, Misses: 0
21c-> Hits: 334, Late: 557, Early: 0, Misses: 0
21d-> Hits: 951, Late: 0, Early: 0, Misses: 0
220-> Hits: 1017, Late: 107, Early: 0, Misses: 0
223-> Hits: 9, Late: 0, Early: 0, Misses: 0
224-> Hits: 622, Late: 707, Early: 0, Misses: 10
225-> Hits: 0, Late: 4, Early: 0, Misses: 0
22b-> Hits: 421, Late: 153, Early: 0, Misses: 3
22f-> Hits: 1389, Late: 0, Early: 0, Misses: 0
230-> Hits: 429, Late: 0, Early: 0, Misses: 0
232-> Hits: 559, Late: 0, Early: 0, Misses: 0
235-> Hits: 2277, Late: 1, Early: 0, Misses: 0
236-> Hits: 1108, Late: 0, Early: 0, Misses: 0
23b-> Hits: 11, Late: 0, Early: 0, Misses: 0
23c-> Hits: 4182, Late: 0, Early: 0, Misses: 0
23d-> Hits: 1729, Late: 0, Early: 0, Misses: 0
23f-> Hits: 2328, Late: 0, Early: 0, Misses: 0
240-> Hits: 913, Late: 0, Early: 0, Misses: 0
241-> Hits: 2216, Late: 0, Early: 0, Misses: 0
242-> Hits: 13191, Late: 1252, Early: 0, Misses: 4
243-> Hits: 1108, Late: 0, Early: 0, Misses: 0
244-> Hits: 10, Late: 0, Early: 0, Misses: 0
245-> Hits: 4088, Late: 0, Early: 0, Misses: 1
246-> Hits: 1108, Late: 0, Early: 0, Misses: 0
247-> Hits: 171, Late: 0, Early: 0, Misses: 0
249-> Hits: 10, Late: 222, Early: 0, Misses: 0
24b-> Hits: 402, Late: 0, Early: 0, Misses: 0
24e-> Hits: 2094, Late: 1, Early: 0, Misses: 0
250-> Hits: 10948, Late: 495, Early: 0, Misses: 33
251-> Hits: 4, Late: 0, Early: 0, Misses: 0
252-> Hits: 4, Late: 0, Early: 0, Misses: 0
253-> Hits: 227, Late: 0, Early: 0, Misses: 0
254-> Hits: 1084, Late: 65, Early: 0, Misses: 0
255-> Hits: 17959, Late: 942, Early: 0, Misses: 102
256-> Hits: 233, Late: 0, Early: 0, Misses: 0
257-> Hits: 1569, Late: 0, Early: 0, Misses: 0
25b-> Hits: 1106, Late: 1, Early: 0, Misses: 1
25d-> Hits: 6940, Late: 181, Early: 0, Misses: 82
25e-> Hits: 729, Late: 0, Early: 0, Misses: 0
25f-> Hits: 747, Late: 0, Early: 0, Misses: 0
261-> Hits: 19485, Late: 651, Early: 0, Misses: 42
265-> Hits: 18856, Late: 1417, Early: 0, Misses: 174
267-> Hits: 1997, Late: 30, Early: 0, Misses: 0
269-> Hits: 202, Late: 0, Early: 0, Misses: 0
26e-> Hits: 9749, Late: 617, Early: 0, Misses: 18
270-> Hits: 3, Late: 0, Early: 0, Misses: 0
272-> Hits: 18689, Late: 1114, Early: 0, Misses: 118
273-> Hits: 919, Late: 0, Early: 0, Misses: 0
275-> Hits: 1881, Late: 166, Early: 0, Misses: 0
277-> Hits: 1011, Late: 0, Early: 0, Misses: 0
279-> Hits: 20, Late: 0, Early: 0, Misses: 0
27b-> Hits: 2509, Late: 230, Early: 0, Misses: 5
280-> Hits: 2485, Late: 1, Early: 0, Misses: 0
281-> Hits: 854, Late: 231, Early: 0, Misses: 23
283-> Hits: 7984, Late: 141, Early: 0, Misses: 2
287-> Hits: 1, Late: 0, Early: 0, Misses: 0
288-> Hits: 19234, Late: 660, Early: 0, Misses: 205
289-> Hits: 220, Late: 0, Early: 0, Misses: 0
28a-> Hits: 724, Late: 0, Early: 0, Misses: 0
28b-> Hits: 3, Late: 124, Early: 0, Misses: 0
28c-> Hits: 330, Late: 0, Early: 0, Misses: 0
28d-> Hits: 427, Late: 0, Early: 0, Misses: 0
28e-> Hits: 338, Late: 0, Early: 0, Misses: 0
28f-> Hits: 1107, Late: 0, Early: 0, Misses: 1
290-> Hits: 376, Late: 0, Early: 0, Misses: 0
292-> Hits: 415, Late: 0, Early: 0, Misses: 0
293-> Hits: 415, Late: 0, Early: 0, Misses: 0
297-> Hits: 524, Late: 0, Early: 0, Misses: 0
29b-> Hits: 3223, Late: 0, Early: 0, Misses: 0
2a0-> Hits: 4141, Late: 0, Early: 0, Misses: 0
2a1-> Hits: 232, Late: 0, Early: 0, Misses: 0
2a6-> Hits: 11103, Late: 0, Early: 0, Misses: 0
2a7-> Hits: 12354, Late: 0, Early: 0, Misses: 0
2a9-> Hits: 13134, Late: 0, Early: 0, Misses: 0
2ab-> Hits: 18953, Late: 0, Early: 0, Misses: 0
2ac-> Hits: 1969, Late: 0, Early: 0, Misses: 0
2ad-> Hits: 19192, Late: 0, Early: 0, Misses: 0
2ae-> Hits: 232, Late: 0, Early: 0, Misses: 0
2af-> Hits: 18960, Late: 0, Early: 0, Misses: 0
2b0-> Hits: 18975, Late: 0, Early: 0, Misses: 0
2b2-> Hits: 312, Late: 0, Early: 0, Misses: 0
2b3-> Hits: 1108, Late: 0, Early: 0, Misses: 0
2b4-> Hits: 1002, Late: 49, Early: 0, Misses: 57
2b6-> Hits: 191, Late: 0, Early: 0, Misses: 0
2b8-> Hits: 438, Late: 0, Early: 0, Misses: 0
2b9-> Hits: 2395, Late: 0, Early: 0, Misses: 0
2bb-> Hits: 2659, Late: 0, Early: 0, Misses: 0
2bc-> Hits: 8, Late: 0, Early: 0, Misses: 0
2bd-> Hits: 3221, Late: 0, Early: 0, Misses: 0
2be-> Hits: 2492, Late: 0, Early: 0, Misses: 0
2bf-> Hits: 1807, Late: 179, Early: 0, Misses: 40
2c2-> Hits: 1800, Late: 226, Early: 0, Misses: 0
2c6-> Hits: 94, Late: 0, Early: 0, Misses: 0
2cc-> Hits: 2026, Late: 0, Early: 0, Misses: 0
2d5-> Hits: 643, Late: 0, Early: 0, Misses: 0
2d9-> Hits: 122, Late: 0, Early: 0, Misses: 0
2da-> Hits: 887, Late: 0, Early: 0, Misses: 0
2dc-> Hits: 1108, Late: 0, Early: 0, Misses: 0
2de-> Hits: 196, Late: 0, Early: 0, Misses: 0
2e0-> Hits: 961, Late: 216, Early: 0, Misses: 5
2e1-> Hits: 232, Late: 0, Early: 0, Misses: 0
2e2-> Hits: 1108, Late: 0, Early: 0, Misses: 0
2e3-> Hits: 1107, Late: 0, Early: 0, Misses: 1
2e6-> Hits: 1108, Late: 0, Early: 0, Misses: 0
2e8-> Hits: 232, Late: 0, Early: 0, Misses: 0
2e9-> Hits: 893, Late: 0, Early: 0, Misses: 0
2ec-> Hits: 3, Late: 0, Early: 0, Misses: 0
2ed-> Hits: 895, Late: 0, Early: 0, Misses: 5
2f0-> Hits: 2005, Late: 285, Early: 0, Misses: 0
2f1-> Hits: 1108, Late: 0, Early: 0, Misses: 0
2f6-> Hits: 172, Late: 0, Early: 0, Misses: 0
2f7-> Hits: 178, Late: 0, Early: 0, Misses: 0
2f9-> Hits: 1059, Late: 0, Early: 0, Misses: 0
2fb-> Hits: 1301, Late: 1, Early: 0, Misses: 0
2fd-> Hits: 1299, Late: 0, Early: 0, Misses: 0
2fe-> Hits: 734, Late: 365, Early: 0, Misses: 9
301-> Hits: 33, Late: 249, Early: 0, Misses: 0
304-> Hits: 65, Late: 217, Early: 0, Misses: 0
308-> Hits: 929, Late: 0, Early: 0, Misses: 0
309-> Hits: 1108, Late: 0, Early: 0, Misses: 0
30a-> Hits: 6039, Late: 245, Early: 0, Misses: 0
310-> Hits: 4655, Late: 165, Early: 0, Misses: 40
311-> Hits: 1584, Late: 1, Early: 0, Misses: 0
314-> Hits: 1969, Late: 40, Early: 0, Misses: 22
318-> Hits: 1108, Late: 0, Early: 0, Misses: 0
319-> Hits: 262, Late: 18, Early: 0, Misses: 0
31a-> Hits: 929, Late: 0, Early: 0, Misses: 0
31b-> Hits: 1781, Late: 250, Early: 0, Misses: 0
31e-> Hits: 3134, Late: 0, Early: 0, Misses: 0
31f-> Hits: 1107, Late: 0, Early: 0, Misses: 1
320-> Hits: 1, Late: 3, Early: 0, Misses: 0
325-> Hits: 191, Late: 41, Early: 0, Misses: 0
326-> Hits: 3325, Late: 45, Early: 0, Misses: 1
327-> Hits: 0, Late: 3, Early: 0, Misses: 0
32a-> Hits: 394, Late: 0, Early: 0, Misses: 0
32b-> Hits: 3134, Late: 0, Early: 0, Misses: 0
32c-> Hits: 2026, Late: 0, Early: 0, Misses: 0
32d-> Hits: 47866, Late: 320, Early: 0, Misses: 0
32e-> Hits: 2152, Late: 0, Early: 0, Misses: 0
330-> Hits: 20975, Late: 5, Early: 0, Misses: 0
332-> Hits: 2026, Late: 0, Early: 0, Misses: 0
333-> Hits: 2296, Late: 0, Early: 0, Misses: 0
334-> Hits: 2026, Late: 0, Early: 0, Misses: 0
335-> Hits: 2026, Late: 0, Early: 0, Misses: 0
337-> Hits: 1972, Late: 11, Early: 0, Misses: 0
33a-> Hits: 10904, Late: 11, Early: 0, Misses: 0
33b-> Hits: 394, Late: 0, Early: 0, Misses: 0
33e-> Hits: 929, Late: 0, Early: 0, Misses: 0
33f-> Hits: 883, Late: 224, Early: 0, Misses: 1
340-> Hits: 156, Late: 1, Early: 0, Misses: 0
342-> Hits: 929, Late: 0, Early: 0, Misses: 0
345-> Hits: 929, Late: 0, Early: 0, Misses: 0
346-> Hits: 5542, Late: 216, Early: 0, Misses: 7
347-> Hits: 898, Late: 136, Early: 0, Misses: 3
348-> Hits: 1107, Late: 1, Early: 0, Misses: 0
350-> Hits: 18398, Late: 105, Early: 0, Misses: 3
351-> Hits: 1043, Late: 0, Early: 0, Misses: 0
353-> Hits: 1809, Late: 0, Early: 0, Misses: 0
355-> Hits: 29280, Late: 228, Early: 0, Misses: 0
356-> Hits: 1829, Late: 207, Early: 0, Misses: 1
357-> Hits: 934, Late: 168, Early: 0, Misses: 5
358-> Hits: 883, Late: 225, Early: 0, Misses: 0
359-> Hits: 3105, Late: 2, Early: 0, Misses: 0
35a-> Hits: 5727, Late: 0, Early: 0, Misses: 2
35c-> Hits: 891, Late: 221, Early: 0, Misses: 0
35d-> Hits: 3215, Late: 2050, Early: 0, Misses: 11
35e-> Hits: 282, Late: 0, Early: 0, Misses: 0
35f-> Hits: 554, Late: 0, Early: 0, Misses: 0
360-> Hits: 682, Late: 0, Early: 0, Misses: 0
362-> Hits: 709, Late: 0, Early: 0, Misses: 0
363-> Hits: 1795, Late: 219, Early: 0, Misses: 2
367-> Hits: 267, Late: 15, Early: 0, Misses: 0
36b-> Hits: 22437, Late: 0, Early: 0, Misses: 0
36c-> Hits: 23, Late: 0, Early: 0, Misses: 0
370-> Hits: 702, Late: 0, Early: 0, Misses: 0
372-> Hits: 112, Late: 0, Early: 0, Misses: 0
375-> Hits: 28228, Late: 1362, Early: 0, Misses: 0
376-> Hits: 525, Late: 582, Early: 0, Misses: 1
377-> Hits: 38996, Late: 0, Early: 0, Misses: 0
37e-> Hits: 34585, Late: 1193, Early: 0, Misses: 294
380-> Hits: 13, Late: 0, Early: 0, Misses: 0
381-> Hits: 753, Late: 355, Early: 0, Misses: 0
383-> Hits: 1108, Late: 0, Early: 0, Misses: 0
384-> Hits: 28891, Late: 457, Early: 0, Misses: 0
388-> Hits: 345, Late: 0, Early: 0, Misses: 0
389-> Hits: 1337, Late: 0, Early: 0, Misses: 0
38b-> Hits: 232, Late: 0, Early: 0, Misses: 0
38d-> Hits: 281, Late: 0, Early: 0, Misses: 0
38e-> Hits: 4501, Late: 3, Early: 0, Misses: 0
38f-> Hits: 113722, Late: 113, Early: 0, Misses: 0
391-> Hits: 329, Late: 0, Early: 0, Misses: 0
392-> Hits: 15, Late: 0, Early: 0, Misses: 0
395-> Hits: 880, Late: 222, Early: 0, Misses: 6
397-> Hits: 233, Late: 0, Early: 0, Misses: 0
398-> Hits: 5291, Late: 0, Early: 0, Misses: 0
399-> Hits: 1083, Late: 0, Early: 0, Misses: 0
39b-> Hits: 3603, Late: 1713, Early: 0, Misses: 107
39d-> Hits: 1082, Late: 1, Early: 0, Misses: 25
39f-> Hits: 450, Late: 16, Early: 0, Misses: 0
3a1-> Hits: 192, Late: 0, Early: 0, Misses: 0
3a4-> Hits: 3419, Late: 0, Early: 0, Misses: 0
3a5-> Hits: 2040, Late: 2, Early: 0, Misses: 0
3ab-> Hits: 129, Late: 0, Early: 0, Misses: 0
3ac-> Hits: 0, Late: 0, Early: 0, Misses: 7
3b0-> Hits: 1181, Late: 0, Early: 0, Misses: 0
3b1-> Hits: 1156, Late: 0, Early: 0, Misses: 0
3b5-> Hits: 31063, Late: 0, Early: 0, Misses: 0
3b6-> Hits: 2366, Late: 2, Early: 0, Misses: 0
3b7-> Hits: 858, Late: 0, Early: 0, Misses: 0
3b8-> Hits: 233, Late: 0, Early: 0, Misses: 0
3bc-> Hits: 247, Late: 0, Early: 0, Misses: 0
3bf-> Hits: 233, Late: 0, Early: 0, Misses: 0
3c0-> Hits: 25361, Late: 742, Early: 0, Misses: 3
3c2-> Hits: 105, Late: 0, Early: 0, Misses: 0
3c4-> Hits: 1108, Late: 0, Early: 0, Misses: 0
3c6-> Hits: 233, Late: 0, Early: 0, Misses: 0
3c7-> Hits: 49, Late: 0, Early: 0, Misses: 0
3cb-> Hits: 253, Late: 0, Early: 0, Misses: 0
3cc-> Hits: 3211, Late: 0, Early: 0, Misses: 0
3ce-> Hits: 233, Late: 0, Early: 0, Misses: 0
3cf-> Hits: 39, Late: 0, Early: 0, Misses: 0
3d0-> Hits: 2416, Late: 0, Early: 0, Misses: 0
3d2-> Hits: 2167, Late: 0, Early: 0, Misses: 0
3d3-> Hits: 503, Late: 8, Early: 0, Misses: 0
3d6-> Hits: 576, Late: 0, Early: 0, Misses: 0
3d7-> Hits: 1469, Late: 31, Early: 0, Misses: 0
3d9-> Hits: 830, Late: 0, Early: 0, Misses: 0
3e0-> Hits: 4905, Late: 15, Early: 0, Misses: 0
3e1-> Hits: 169, Late: 0, Early: 0, Misses: 0
3e2-> Hits: 232, Late: 0, Early: 0, Misses: 0
3e3-> Hits: 1149, Late: 1, Early: 0, Misses: 0
3e4-> Hits: 189, Late: 43, Early: 0, Misses: 0
3e6-> Hits: 0, Late: 49, Early: 0, Misses: 0
3e7-> Hits: 416, Late: 46, Early: 0, Misses: 2
3e8-> Hits: 1135, Late: 1, Early: 0, Misses: 0
3ea-> Hits: 2263, Late: 0, Early: 0, Misses: 2
3eb-> Hits: 4356, Late: 0, Early: 0, Misses: 0
3ee-> Hits: 109, Late: 44, Early: 0, Misses: 3
3ef-> Hits: 108, Late: 211, Early: 0, Misses: 4
3f0-> Hits: 945, Late: 0, Early: 0, Misses: 0
3f1-> Hits: 826, Late: 0, Early: 0, Misses: 0
3f5-> Hits: 32, Late: 3, Early: 0, Misses: 0
3f9-> Hits: 1276, Late: 0, Early: 0, Misses: 0
3fa-> Hits: 129, Late: 103, Early: 0, Misses: 0
3fb-> Hits: 49, Late: 0, Early: 0, Misses: 0
3fd-> Hits: 43, Late: 145, Early: 0, Misses: 2
3ff-> Hits: 29, Late: 0, Early: 0, Misses: 0
400-> Hits: 119, Late: 0, Early: 0, Misses: 0
402-> Hits: 133, Late: 36, Early: 0, Misses: 3
404-> Hits: 1107, Late: 0, Early: 0, Misses: 0
406-> Hits: 696, Late: 182, Early: 0, Misses: 0
409-> Hits: 11, Late: 0, Early: 0, Misses: 0
40d-> Hits: 196, Late: 0, Early: 0, Misses: 0
40f-> Hits: 154, Late: 71, Early: 0, Misses: 7
410-> Hits: 1235, Late: 5, Early: 0, Misses: 0
411-> Hits: 24, Late: 0, Early: 0, Misses: 0
412-> Hits: 126, Late: 0, Early: 0, Misses: 0
413-> Hits: 19, Late: 165, Early: 0, Misses: 0
414-> Hits: 1108, Late: 0, Early: 0, Misses: 0
417-> Hits: 232, Late: 0, Early: 0, Misses: 0
418-> Hits: 1809, Late: 0, Early: 0, Misses: 0
41a-> Hits: 232, Late: 0, Early: 0, Misses: 0
41b-> Hits: 485, Late: 0, Early: 0, Misses: 0
41c-> Hits: 589, Late: 0, Early: 0, Misses: 0
41e-> Hits: 184, Late: 0, Early: 0, Misses: 0
420-> Hits: 869, Late: 6, Early: 0, Misses: 0
423-> Hits: 232, Late: 0, Early: 0, Misses: 0
425-> Hits: 2236, Late: 167, Early: 0, Misses: 0
428-> Hits: 232, Late: 0, Early: 0, Misses: 0
42a-> Hits: 281, Late: 2, Early: 0, Misses: 0
42b-> Hits: 49, Late: 0, Early: 0, Misses: 0
42c-> Hits: 17, Late: 167, Early: 0, Misses: 0
42d-> Hits: 49, Late: 0, Early: 0, Misses: 0
42f-> Hits: 49, Late: 0, Early: 0, Misses: 0
431-> Hits: 49, Late: 0, Early: 0, Misses: 0
432-> Hits: 944, Late: 0, Early: 0, Misses: 0
433-> Hits: 49, Late: 0, Early: 0, Misses: 0
434-> Hits: 49, Late: 0, Early: 0, Misses: 0
436-> Hits: 10, Late: 0, Early: 0, Misses: 0
437-> Hits: 162, Late: 0, Early: 0, Misses: 0
439-> Hits: 2, Late: 0, Early: 0, Misses: 0
43a-> Hits: 232, Late: 0, Early: 0, Misses: 0
43d-> Hits: 253, Late: 163, Early: 0, Misses: 0
43f-> Hits: 1108, Late: 0, Early: 0, Misses: 0
442-> Hits: 6630, Late: 0, Early: 0, Misses: 0
443-> Hits: 1107, Late: 0, Early: 0, Misses: 0
444-> Hits: 232, Late: 0, Early: 0, Misses: 0
445-> Hits: 1115, Late: 138, Early: 0, Misses: 0
446-> Hits: 232, Late: 0, Early: 0, Misses: 0
447-> Hits: 232, Late: 0, Early: 0, Misses: 0
449-> Hits: 1198, Late: 0, Early: 0, Misses: 0
44a-> Hits: 875, Late: 0, Early: 0, Misses: 0
44d-> Hits: 731, Late: 0, Early: 0, Misses: 0
44e-> Hits: 15806, Late: 1779, Early: 0, Misses: 151
451-> Hits: 875, Late: 0, Early: 0, Misses: 0
454-> Hits: 224, Late: 0, Early: 0, Misses: 0
456-> Hits: 45, Late: 0, Early: 0, Misses: 0
458-> Hits: 26, Late: 0, Early: 0, Misses: 0
459-> Hits: 1957, Late: 85, Early: 0, Misses: 1
45a-> Hits: 747, Late: 0, Early: 0, Misses: 0
45e-> Hits: 117, Late: 0, Early: 0, Misses: 0
461-> Hits: 3768, Late: 172, Early: 0, Misses: 6
463-> Hits: 232, Late: 0, Early: 0, Misses: 0
464-> Hits: 38, Late: 0, Early: 0, Misses: 0
465-> Hits: 232, Late: 0, Early: 0, Misses: 0
467-> Hits: 1195, Late: 0, Early: 0, Misses: 0
468-> Hits: 1157, Late: 0, Early: 0, Misses: 0
469-> Hits: 2214, Late: 0, Early: 0, Misses: 0
46a-> Hits: 1108, Late: 0, Early: 0, Misses: 0
46b-> Hits: 1340, Late: 0, Early: 0, Misses: 0
46c-> Hits: 5020, Late: 27, Early: 0, Misses: 0
46d-> Hits: 2216, Late: 0, Early: 0, Misses: 0
46e-> Hits: 1177, Late: 0, Early: 0, Misses: 0
46f-> Hits: 2220, Late: 0, Early: 0, Misses: 0
470-> Hits: 280, Late: 0, Early: 0, Misses: 0
471-> Hits: 2216, Late: 0, Early: 0, Misses: 0
472-> Hits: 2704, Late: 106, Early: 0, Misses: 1
473-> Hits: 809, Late: 0, Early: 0, Misses: 0
475-> Hits: 280, Late: 0, Early: 0, Misses: 0
476-> Hits: 564, Late: 69, Early: 0, Misses: 0
477-> Hits: 401, Late: 0, Early: 0, Misses: 0
479-> Hits: 161, Late: 0, Early: 0, Misses: 0
47a-> Hits: 182, Late: 49, Early: 0, Misses: 1
47c-> Hits: 280, Late: 0, Early: 0, Misses: 0
480-> Hits: 256, Late: 0, Early: 0, Misses: 0
483-> Hits: 512, Late: 0, Early: 0, Misses: 0
484-> Hits: 9789, Late: 0, Early: 0, Misses: 0
485-> Hits: 1476, Late: 78, Early: 0, Misses: 1
486-> Hits: 186, Late: 48, Early: 0, Misses: 0
488-> Hits: 9590, Late: 0, Early: 0, Misses: 0
489-> Hits: 280, Late: 0, Early: 0, Misses: 0
48a-> Hits: 117, Late: 0, Early: 0, Misses: 0
48c-> Hits: 747, Late: 0, Early: 0, Misses: 0
48d-> Hits: 1103, Late: 49, Early: 0, Misses: 2
490-> Hits: 67, Late: 0, Early: 0, Misses: 0
492-> Hits: 1885, Late: 0, Early: 0, Misses: 0
493-> Hits: 621, Late: 0, Early: 0, Misses: 0
494-> Hits: 755, Late: 0, Early: 0, Misses: 0
496-> Hits: 621, Late: 0, Early: 0, Misses: 0
498-> Hits: 239, Late: 41, Early: 0, Misses: 0
49a-> Hits: 282, Late: 0, Early: 0, Misses: 0
49b-> Hits: 275, Late: 1, Early: 0, Misses: 0
49c-> Hits: 233, Late: 0, Early: 0, Misses: 0
49e-> Hits: 515, Late: 0, Early: 0, Misses: 0
4a0-> Hits: 379, Late: 0, Early: 0, Misses: 0
4a1-> Hits: 282, Late: 0, Early: 0, Misses: 0
4a2-> Hits: 233, Late: 0, Early: 0, Misses: 0
4a3-> Hits: 1515, Late: 1, Early: 0, Misses: 0
4a6-> Hits: 304, Late: 3, Early: 0, Misses: 0
4a7-> Hits: 747, Late: 0, Early: 0, Misses: 0
4a9-> Hits: 144, Late: 0, Early: 0, Misses: 0
4aa-> Hits: 1341, Late: 0, Early: 0, Misses: 0
4ac-> Hits: 282, Late: 0, Early: 0, Misses: 0
4ad-> Hits: 513, Late: 0, Early: 0, Misses: 0
4ae-> Hits: 811, Late: 0, Early: 0, Misses: 0
4af-> Hits: 515, Late: 0, Early: 0, Misses: 0
4b0-> Hits: 493, Late: 34, Early: 0, Misses: 0
4b1-> Hits: 1029, Late: 0, Early: 0, Misses: 0
4b3-> Hits: 341, Late: 0, Early: 0, Misses: 0
4b4-> Hits: 514, Late: 47, Early: 0, Misses: 0
4b5-> Hits: 282, Late: 0, Early: 0, Misses: 0
4b6-> Hits: 331, Late: 0, Early: 0, Misses: 0
4b8-> Hits: 1155, Late: 0, Early: 0, Misses: 1
4ba-> Hits: 49, Late: 0, Early: 0, Misses: 0
4bb-> Hits: 1107, Late: 0, Early: 0, Misses: 0
4bc-> Hits: 49, Late: 0, Early: 0, Misses: 0
4bf-> Hits: 964, Late: 3, Early: 0, Misses: 0
4c1-> Hits: 139, Late: 0, Early: 0, Misses: 0
4c2-> Hits: 232, Late: 0, Early: 0, Misses: 0
4c7-> Hits: 682, Late: 0, Early: 0, Misses: 1
4c9-> Hits: 280, Late: 0, Early: 0, Misses: 0
4cb-> Hits: 23210, Late: 125, Early: 0, Misses: 0
4cf-> Hits: 232, Late: 0, Early: 0, Misses: 0
4d0-> Hits: 280, Late: 0, Early: 0, Misses: 0
4d1-> Hits: 125880, Late: 248083, Early: 0, Misses: 69
4d2-> Hits: 632, Late: 10, Early: 0, Misses: 2
4d3-> Hits: 373, Late: 0, Early: 0, Misses: 0
4d4-> Hits: 922, Late: 0, Early: 0, Misses: 0
4d5-> Hits: 233, Late: 0, Early: 0, Misses: 0
4d7-> Hits: 233, Late: 0, Early: 0, Misses: 0
4d8-> Hits: 252, Late: 184, Early: 0, Misses: 1
4d9-> Hits: 233, Late: 0, Early: 0, Misses: 0
4db-> Hits: 698, Late: 0, Early: 0, Misses: 0
4dc-> Hits: 915, Late: 0, Early: 0, Misses: 1
4df-> Hits: 100, Late: 0, Early: 0, Misses: 0
4e0-> Hits: 639684, Late: 117001, Early: 0, Misses: 3
4e1-> Hits: 232, Late: 0, Early: 0, Misses: 0
4e4-> Hits: 147, Late: 1, Early: 0, Misses: 0
4e8-> Hits: 2444, Late: 398, Early: 0, Misses: 1
4e9-> Hits: 47, Late: 0, Early: 0, Misses: 0
4ea-> Hits: 62, Late: 0, Early: 0, Misses: 0
4ef-> Hits: 2828, Late: 65, Early: 0, Misses: 0
4f0-> Hits: 1108, Late: 3, Early: 0, Misses: 0
4f1-> Hits: 1108, Late: 0, Early: 0, Misses: 0
4f2-> Hits: 683, Late: 0, Early: 0, Misses: 0
4f3-> Hits: 1108, Late: 0, Early: 0, Misses: 0
4f4-> Hits: 50, Late: 0, Early: 0, Misses: 0
4f5-> Hits: 1108, Late: 0, Early: 0, Misses: 0
4f7-> Hits: 374941, Late: 0, Early: 0, Misses: 0
4f8-> Hits: 1108, Late: 0, Early: 0, Misses: 0
4f9-> Hits: 1573, Late: 0, Early: 0, Misses: 0
4fd-> Hits: 5, Late: 0, Early: 0, Misses: 0
4fe-> Hits: 1322, Late: 0, Early: 0, Misses: 0
502-> Hits: 3685, Late: 34, Early: 0, Misses: 0
508-> Hits: 18309, Late: 0, Early: 0, Misses: 0
509-> Hits: 18175, Late: 202, Early: 0, Misses: 0
50b-> Hits: 18392, Late: 0, Early: 0, Misses: 0
50d-> Hits: 17738, Late: 0, Early: 0, Misses: 0
50e-> Hits: 497, Late: 0, Early: 0, Misses: 0
50f-> Hits: 18326, Late: 0, Early: 0, Misses: 0
510-> Hits: 1075893, Late: 0, Early: 0, Misses: 0
511-> Hits: 18235, Late: 0, Early: 0, Misses: 0
512-> Hits: 17738, Late: 0, Early: 0, Misses: 0
516-> Hits: 1, Late: 0, Early: 0, Misses: 0
517-> Hits: 3249, Late: 1, Early: 0, Misses: 0
51e-> Hits: 683, Late: 0, Early: 0, Misses: 0
51f-> Hits: 3623, Late: 0, Early: 0, Misses: 0
520-> Hits: 747, Late: 0, Early: 0, Misses: 0
521-> Hits: 747, Late: 0, Early: 0, Misses: 0
523-> Hits: 747, Late: 3, Early: 0, Misses: 0
525-> Hits: 837, Late: 0, Early: 0, Misses: 0
526-> Hits: 838, Late: 0, Early: 0, Misses: 0
527-> Hits: 91, Late: 0, Early: 0, Misses: 0
529-> Hits: 97, Late: 0, Early: 0, Misses: 0
52a-> Hits: 2594, Late: 0, Early: 0, Misses: 0
52b-> Hits: 97, Late: 0, Early: 0, Misses: 0
52d-> Hits: 97, Late: 0, Early: 0, Misses: 0
52f-> Hits: 97, Late: 0, Early: 0, Misses: 0
531-> Hits: 218, Late: 0, Early: 0, Misses: 0
534-> Hits: 363, Late: 1, Early: 0, Misses: 0
53a-> Hits: 233, Late: 0, Early: 0, Misses: 0
540-> Hits: 42, Late: 0, Early: 0, Misses: 0
548-> Hits: 48, Late: 0, Early: 0, Misses: 0
54b-> Hits: 23, Late: 0, Early: 0, Misses: 0
54d-> Hits: 2321, Late: 0, Early: 0, Misses: 0
552-> Hits: 879, Late: 68, Early: 0, Misses: 0
558-> Hits: 1107, Late: 0, Early: 0, Misses: 0
55b-> Hits: 874, Late: 55, Early: 0, Misses: 0
564-> Hits: 993, Late: 47, Early: 0, Misses: 1
565-> Hits: 270, Late: 0, Early: 0, Misses: 0
567-> Hits: 1279, Late: 0, Early: 0, Misses: 0
568-> Hits: 1100, Late: 7, Early: 0, Misses: 0
569-> Hits: 17373, Late: 162, Early: 0, Misses: 177
56b-> Hits: 35, Late: 0, Early: 0, Misses: 0
570-> Hits: 953, Late: 0, Early: 0, Misses: 0
572-> Hits: 17606, Late: 0, Early: 0, Misses: 0
574-> Hits: 102, Late: 0, Early: 0, Misses: 0
576-> Hits: 34, Late: 0, Early: 0, Misses: 0
578-> Hits: 1112, Late: 57, Early: 0, Misses: 0
579-> Hits: 594, Late: 0, Early: 0, Misses: 0
57b-> Hits: 4624, Late: 310, Early: 0, Misses: 1
57d-> Hits: 748, Late: 0, Early: 0, Misses: 0
57e-> Hits: 143, Late: 0, Early: 0, Misses: 0
57f-> Hits: 782, Late: 174, Early: 0, Misses: 0
581-> Hits: 793, Late: 0, Early: 0, Misses: 0
582-> Hits: 1, Late: 0, Early: 0, Misses: 0
586-> Hits: 12, Late: 220, Early: 0, Misses: 0
587-> Hits: 824, Late: 0, Early: 0, Misses: 0
588-> Hits: 1093, Late: 0, Early: 0, Misses: 0
589-> Hits: 8, Late: 176, Early: 0, Misses: 0
58a-> Hits: 1242, Late: 0, Early: 0, Misses: 0
58b-> Hits: 806, Late: 95, Early: 0, Misses: 0
58c-> Hits: 1107, Late: 0, Early: 0, Misses: 0
58d-> Hits: 559, Late: 0, Early: 0, Misses: 0
590-> Hits: 512, Late: 60, Early: 0, Misses: 1
591-> Hits: 779, Late: 148, Early: 0, Misses: 2
593-> Hits: 17480, Late: 0, Early: 0, Misses: 0
594-> Hits: 22277, Late: 241, Early: 0, Misses: 13
597-> Hits: 137, Late: 1, Early: 0, Misses: 0
598-> Hits: 852, Late: 28, Early: 0, Misses: 0
599-> Hits: 45, Late: 0, Early: 0, Misses: 0
59a-> Hits: 3910, Late: 264, Early: 0, Misses: 0
59b-> Hits: 0, Late: 280, Early: 0, Misses: 0
59e-> Hits: 233, Late: 0, Early: 0, Misses: 0
59f-> Hits: 126, Late: 0, Early: 0, Misses: 0
5a0-> Hits: 282, Late: 0, Early: 0, Misses: 0
5a5-> Hits: 170, Late: 0, Early: 0, Misses: 0
5a6-> Hits: 236, Late: 0, Early: 0, Misses: 0
5a8-> Hits: 233, Late: 0, Early: 0, Misses: 0
5a9-> Hits: 3939, Late: 235, Early: 0, Misses: 0
5aa-> Hits: 604, Late: 448, Early: 0, Misses: 0
5ad-> Hits: 494, Late: 0, Early: 0, Misses: 0
5b0-> Hits: 3051, Late: 591, Early: 0, Misses: 11
5b1-> Hits: 184, Late: 107, Early: 0, Misses: 5
5b4-> Hits: 174, Late: 0, Early: 0, Misses: 0
5b5-> Hits: 3399, Late: 392, Early: 0, Misses: 0
5b6-> Hits: 5, Late: 0, Early: 0, Misses: 2
5b7-> Hits: 30, Late: 2, Early: 0, Misses: 0
5bc-> Hits: 136, Late: 0, Early: 0, Misses: 0
5be-> Hits: 2, Late: 0, Early: 0, Misses: 0
5c0-> Hits: 4067, Late: 0, Early: 0, Misses: 0
5c1-> Hits: 92, Late: 29, Early: 0, Misses: 1
5c2-> Hits: 11424, Late: 294, Early: 0, Misses: 0
5c4-> Hits: 374064, Late: 1, Early: 0, Misses: 0
5c5-> Hits: 184, Late: 0, Early: 0, Misses: 0
5c6-> Hits: 45, Late: 0, Early: 0, Misses: 0
5c7-> Hits: 378562, Late: 64, Early: 0, Misses: 31
5c8-> Hits: 233, Late: 0, Early: 0, Misses: 0
5ca-> Hits: 621, Late: 0, Early: 0, Misses: 0
5cb-> Hits: 1, Late: 0, Early: 0, Misses: 0
5cd-> Hits: 621, Late: 0, Early: 0, Misses: 0
5ce-> Hits: 551, Late: 0, Early: 0, Misses: 0
5cf-> Hits: 6914, Late: 390, Early: 0, Misses: 8
5d0-> Hits: 43, Late: 0, Early: 0, Misses: 0
5d4-> Hits: 375180, Late: 1, Early: 0, Misses: 0
5d5-> Hits: 1416, Late: 0, Early: 0, Misses: 0
5d6-> Hits: 499, Late: 0, Early: 0, Misses: 0
5d7-> Hits: 2196, Late: 68, Early: 0, Misses: 2
5d9-> Hits: 238, Late: 0, Early: 0, Misses: 2
5da-> Hits: 310, Late: 0, Early: 0, Misses: 0
5db-> Hits: 267, Late: 2, Early: 0, Misses: 0
5dc-> Hits: 375176, Late: 0, Early: 0, Misses: 0
5dd-> Hits: 374118, Late: 104, Early: 0, Misses: 0
5de-> Hits: 887, Late: 0, Early: 0, Misses: 0
5e0-> Hits: 1393, Late: 0, Early: 0, Misses: 0
5e3-> Hits: 621, Late: 0, Early: 0, Misses: 0
5e5-> Hits: 235, Late: 0, Early: 0, Misses: 0
5e8-> Hits: 49, Late: 1, Early: 0, Misses: 183
5ea-> Hits: 8218, Late: 127, Early: 0, Misses: 0
5eb-> Hits: 17, Late: 0, Early: 0, Misses: 0
5ec-> Hits: 80, Late: 0, Early: 0, Misses: 0
5ee-> Hits: 2133, Late: 0, Early: 0, Misses: 1
5ef-> Hits: 184, Late: 0, Early: 0, Misses: 0
5f0-> Hits: 10301, Late: 116, Early: 0, Misses: 0
5f3-> Hits: 91, Late: 1, Early: 0, Misses: 0
5f4-> Hits: 1112, Late: 24, Early: 0, Misses: 0
5f5-> Hits: 1, Late: 0, Early: 0, Misses: 0
5f6-> Hits: 10, Late: 0, Early: 0, Misses: 0
5f7-> Hits: 911, Late: 231, Early: 0, Misses: 13
5fa-> Hits: 109, Late: 0, Early: 0, Misses: 0
5fc-> Hits: 8, Late: 172, Early: 0, Misses: 4
5fe-> Hits: 894, Late: 250, Early: 0, Misses: 0
602-> Hits: 1966, Late: 141, Early: 0, Misses: 0
603-> Hits: 86, Late: 1, Early: 0, Misses: 57
604-> Hits: 856, Late: 46, Early: 0, Misses: 0
605-> Hits: 613, Late: 21, Early: 0, Misses: 0
606-> Hits: 1639, Late: 9, Early: 0, Misses: 0
607-> Hits: 4950, Late: 41, Early: 0, Misses: 5
608-> Hits: 180, Late: 0, Early: 0, Misses: 0
609-> Hits: 1183, Late: 91, Early: 0, Misses: 0
60a-> Hits: 1, Late: 0, Early: 0, Misses: 0
60b-> Hits: 379, Late: 0, Early: 0, Misses: 0
60e-> Hits: 280, Late: 0, Early: 0, Misses: 0
60f-> Hits: 8, Late: 0, Early: 0, Misses: 0
610-> Hits: 3366, Late: 27, Early: 0, Misses: 1
612-> Hits: 429, Late: 339, Early: 0, Misses: 0
614-> Hits: 5690, Late: 55, Early: 0, Misses: 0
615-> Hits: 880, Late: 0, Early: 0, Misses: 0
616-> Hits: 47, Late: 0, Early: 0, Misses: 0
617-> Hits: 883, Late: 229, Early: 0, Misses: 0
619-> Hits: 1301, Late: 347, Early: 0, Misses: 0
61b-> Hits: 880, Late: 0, Early: 0, Misses: 0
61c-> Hits: 2868, Late: 0, Early: 0, Misses: 0
61d-> Hits: 4051, Late: 0, Early: 0, Misses: 0
61e-> Hits: 880, Late: 0, Early: 0, Misses: 0
61f-> Hits: 3957, Late: 0, Early: 0, Misses: 0
621-> Hits: 828, Late: 0, Early: 0, Misses: 0
622-> Hits: 233, Late: 0, Early: 0, Misses: 0
624-> Hits: 280, Late: 0, Early: 0, Misses: 0
626-> Hits: 1091, Late: 0, Early: 0, Misses: 0
627-> Hits: 0, Late: 49, Early: 0, Misses: 0
628-> Hits: 57, Late: 222, Early: 0, Misses: 0
62c-> Hits: 72, Late: 0, Early: 0, Misses: 0
62d-> Hits: 154, Late: 0, Early: 0, Misses: 0
62e-> Hits: 184, Late: 0, Early: 0, Misses: 0
630-> Hits: 4, Late: 0, Early: 0, Misses: 0
632-> Hits: 621, Late: 0, Early: 0, Misses: 0
633-> Hits: 155, Late: 0, Early: 0, Misses: 0
634-> Hits: 26, Late: 0, Early: 0, Misses: 0
636-> Hits: 511, Late: 0, Early: 0, Misses: 0
637-> Hits: 158, Late: 6, Early: 0, Misses: 0
63a-> Hits: 2590, Late: 126, Early: 0, Misses: 4
63b-> Hits: 47, Late: 0, Early: 0, Misses: 0
63d-> Hits: 621, Late: 0, Early: 0, Misses: 0
63f-> Hits: 1761, Late: 176, Early: 0, Misses: 163
642-> Hits: 69, Late: 15, Early: 0, Misses: 0
643-> Hits: 29, Late: 0, Early: 0, Misses: 0
644-> Hits: 3653, Late: 191, Early: 0, Misses: 0
645-> Hits: 47, Late: 0, Early: 0, Misses: 0
646-> Hits: 709, Late: 1, Early: 0, Misses: 13
647-> Hits: 37, Late: 0, Early: 0, Misses: 0
648-> Hits: 500, Late: 4, Early: 0, Misses: 0
64a-> Hits: 358, Late: 4, Early: 0, Misses: 0
64b-> Hits: 261, Late: 0, Early: 0, Misses: 0
64c-> Hits: 1069, Late: 132, Early: 0, Misses: 0
64e-> Hits: 5737, Late: 205, Early: 0, Misses: 1
64f-> Hits: 177, Late: 0, Early: 0, Misses: 0
652-> Hits: 1904, Late: 1, Early: 0, Misses: 0
653-> Hits: 676, Late: 0, Early: 0, Misses: 0
654-> Hits: 1127, Late: 0, Early: 0, Misses: 0
657-> Hits: 1513, Late: 809, Early: 0, Misses: 0
658-> Hits: 4023, Late: 3, Early: 0, Misses: 0
659-> Hits: 3844, Late: 0, Early: 0, Misses: 0
65a-> Hits: 184, Late: 0, Early: 0, Misses: 0
65b-> Hits: 130, Late: 232, Early: 0, Misses: 0
65c-> Hits: 891, Late: 216, Early: 0, Misses: 0
65d-> Hits: 1734, Late: 403, Early: 0, Misses: 0
65e-> Hits: 166, Late: 1, Early: 0, Misses: 17
65f-> Hits: 1881, Late: 10, Early: 0, Misses: 0
660-> Hits: 652, Late: 356, Early: 0, Misses: 2
664-> Hits: 893, Late: 232, Early: 0, Misses: 0
665-> Hits: 180, Late: 2, Early: 0, Misses: 2
667-> Hits: 0, Late: 1, Early: 0, Misses: 0
669-> Hits: 2452, Late: 1500, Early: 0, Misses: 8
66a-> Hits: 3125, Late: 0, Early: 0, Misses: 0
66b-> Hits: 418, Late: 345, Early: 0, Misses: 2
66c-> Hits: 32, Late: 53, Early: 0, Misses: 1
66d-> Hits: 836, Late: 0, Early: 0, Misses: 0
66e-> Hits: 1081, Late: 0, Early: 0, Misses: 0
670-> Hits: 1218, Late: 1, Early: 0, Misses: 0
671-> Hits: 2901, Late: 0, Early: 0, Misses: 0
672-> Hits: 395, Late: 369, Early: 0, Misses: 1
673-> Hits: 3934, Late: 0, Early: 0, Misses: 0
674-> Hits: 3557, Late: 611, Early: 0, Misses: 6
676-> Hits: 184, Late: 0, Early: 0, Misses: 0
677-> Hits: 1107, Late: 0, Early: 0, Misses: 0
678-> Hits: 1981, Late: 26, Early: 0, Misses: 0
67a-> Hits: 1327, Late: 0, Early: 0, Misses: 0
67c-> Hits: 229, Late: 0, Early: 0, Misses: 0
67f-> Hits: 2285, Late: 165, Early: 0, Misses: 16
680-> Hits: 4151, Late: 77, Early: 0, Misses: 0
681-> Hits: 3130, Late: 134, Early: 0, Misses: 0
682-> Hits: 1644, Late: 15, Early: 0, Misses: 0
683-> Hits: 2910, Late: 0, Early: 0, Misses: 0
684-> Hits: 1607, Late: 336, Early: 0, Misses: 0
686-> Hits: 895, Late: 0, Early: 0, Misses: 0
687-> Hits: 896, Late: 0, Early: 0, Misses: 0
688-> Hits: 361, Late: 0, Early: 0, Misses: 0
689-> Hits: 1714, Late: 0, Early: 0, Misses: 0
68a-> Hits: 1269, Late: 1, Early: 0, Misses: 1
68d-> Hits: 5, Late: 1, Early: 0, Misses: 0
68e-> Hits: 805, Late: 166, Early: 0, Misses: 20
690-> Hits: 1755, Late: 8, Early: 0, Misses: 0
691-> Hits: 56, Late: 226, Early: 0, Misses: 0
692-> Hits: 56710, Late: 3562, Early: 0, Misses: 26
693-> Hits: 1337, Late: 0, Early: 0, Misses: 0
694-> Hits: 57, Late: 225, Early: 0, Misses: 0
695-> Hits: 10, Late: 0, Early: 0, Misses: 0
697-> Hits: 61646, Late: 398, Early: 0, Misses: 5
698-> Hits: 1188, Late: 84, Early: 0, Misses: 0
699-> Hits: 94, Late: 86, Early: 0, Misses: 4
69b-> Hits: 1373, Late: 8, Early: 0, Misses: 0
69c-> Hits: 2802, Late: 0, Early: 0, Misses: 0
69d-> Hits: 54, Late: 120, Early: 0, Misses: 10
69e-> Hits: 1178, Late: 34, Early: 0, Misses: 0
69f-> Hits: 1973, Late: 11, Early: 0, Misses: 0
6a0-> Hits: 3810, Late: 121, Early: 0, Misses: 33
6a2-> Hits: 1982, Late: 0, Early: 0, Misses: 0
6a4-> Hits: 1190, Late: 292, Early: 0, Misses: 0
6a5-> Hits: 549, Late: 435, Early: 0, Misses: 7
6a6-> Hits: 0, Late: 0, Early: 0, Misses: 3
6a8-> Hits: 57, Late: 168, Early: 0, Misses: 0
6a9-> Hits: 233, Late: 0, Early: 0, Misses: 0
6aa-> Hits: 233, Late: 0, Early: 0, Misses: 0
6ab-> Hits: 11, Late: 173, Early: 0, Misses: 0
6ac-> Hits: 233, Late: 0, Early: 0, Misses: 0
6ad-> Hits: 71, Late: 0, Early: 0, Misses: 0
6ae-> Hits: 233, Late: 0, Early: 0, Misses: 0
6b0-> Hits: 233, Late: 0, Early: 0, Misses: 1
6b1-> Hits: 621, Late: 302, Early: 0, Misses: 0
6b2-> Hits: 55, Late: 6, Early: 0, Misses: 0
6b4-> Hits: 1224, Late: 0, Early: 0, Misses: 0
6b8-> Hits: 1075, Late: 0, Early: 0, Misses: 0
6b9-> Hits: 331, Late: 0, Early: 0, Misses: 0
6ba-> Hits: 702, Late: 0, Early: 0, Misses: 0
6bb-> Hits: 546, Late: 0, Early: 0, Misses: 0
6bc-> Hits: 10466, Late: 0, Early: 0, Misses: 0
6bd-> Hits: 12543, Late: 621, Early: 0, Misses: 0
6be-> Hits: 10481, Late: 0, Early: 0, Misses: 0
6bf-> Hits: 5107, Late: 621, Early: 0, Misses: 0
6c0-> Hits: 1352, Late: 0, Early: 0, Misses: 0
6c1-> Hits: 1840, Late: 0, Early: 0, Misses: 0
6c4-> Hits: 166, Late: 18, Early: 0, Misses: 0
6c5-> Hits: 1871, Late: 0, Early: 0, Misses: 0
6c6-> Hits: 1957, Late: 242, Early: 0, Misses: 0
6c7-> Hits: 992, Late: 0, Early: 0, Misses: 0
6c9-> Hits: 1, Late: 0, Early: 0, Misses: 1
6cb-> Hits: 322, Late: 0, Early: 0, Misses: 0
6cc-> Hits: 2051, Late: 1, Early: 0, Misses: 0
6ce-> Hits: 991, Late: 0, Early: 0, Misses: 0
6cf-> Hits: 3, Late: 0, Early: 0, Misses: 0
6d0-> Hits: 98, Late: 0, Early: 0, Misses: 0
6d3-> Hits: 2000, Late: 0, Early: 0, Misses: 0
6d6-> Hits: 991, Late: 0, Early: 0, Misses: 0
6d7-> Hits: 2745, Late: 2337, Early: 0, Misses: 0
6da-> Hits: 56, Late: 0, Early: 0, Misses: 0
6db-> Hits: 2929, Late: 0, Early: 0, Misses: 0
6dc-> Hits: 752, Late: 555, Early: 0, Misses: 0
6dd-> Hits: 1108, Late: 0, Early: 0, Misses: 0
6de-> Hits: 1013, Late: 0, Early: 0, Misses: 0
6df-> Hits: 233, Late: 0, Early: 0, Misses: 0
6e0-> Hits: 1099, Late: 0, Early: 0, Misses: 0
6e1-> Hits: 991, Late: 0, Early: 0, Misses: 0
6e3-> Hits: 991, Late: 0, Early: 0, Misses: 0
6e4-> Hits: 233, Late: 0, Early: 0, Misses: 0
6e5-> Hits: 1712, Late: 0, Early: 0, Misses: 1
6e6-> Hits: 1224, Late: 0, Early: 0, Misses: 0
6e8-> Hits: 233, Late: 0, Early: 0, Misses: 0
6ed-> Hits: 29, Late: 0, Early: 0, Misses: 0
6ee-> Hits: 1138, Late: 0, Early: 0, Misses: 0
6ef-> Hits: 6468, Late: 0, Early: 0, Misses: 0
6f0-> Hits: 56451, Late: 0, Early: 0, Misses: 0
6f2-> Hits: 1373, Late: 0, Early: 0, Misses: 0
6f3-> Hits: 4, Late: 0, Early: 0, Misses: 0
6f4-> Hits: 1344, Late: 0, Early: 0, Misses: 0
6f5-> Hits: 2, Late: 0, Early: 0, Misses: 0
6f6-> Hits: 1341, Late: 0, Early: 0, Misses: 0
6f7-> Hits: 890, Late: 0, Early: 0, Misses: 0
6f8-> Hits: 6375, Late: 0, Early: 0, Misses: 0
6f9-> Hits: 2449, Late: 0, Early: 0, Misses: 0
6fb-> Hits: 852, Late: 6, Early: 0, Misses: 0
6fd-> Hits: 233, Late: 0, Early: 0, Misses: 0
701-> Hits: 233, Late: 0, Early: 0, Misses: 0
702-> Hits: 1299, Late: 23, Early: 0, Misses: 0
703-> Hits: 231, Late: 0, Early: 0, Misses: 0
704-> Hits: 4817, Late: 31, Early: 0, Misses: 0
705-> Hits: 233, Late: 0, Early: 0, Misses: 0
706-> Hits: 2124, Late: 583, Early: 0, Misses: 23
708-> Hits: 1757, Late: 0, Early: 0, Misses: 0
709-> Hits: 516, Late: 0, Early: 0, Misses: 0
70a-> Hits: 7485, Late: 403, Early: 0, Misses: 156
70b-> Hits: 5790, Late: 0, Early: 0, Misses: 0
70c-> Hits: 280, Late: 0, Early: 0, Misses: 0
70d-> Hits: 5267, Late: 0, Early: 0, Misses: 0
70e-> Hits: 551, Late: 0, Early: 0, Misses: 0
70f-> Hits: 5034, Late: 0, Early: 0, Misses: 0
710-> Hits: 280, Late: 0, Early: 0, Misses: 0
711-> Hits: 5267, Late: 0, Early: 0, Misses: 0
712-> Hits: 4566, Late: 0, Early: 0, Misses: 0
713-> Hits: 8675, Late: 0, Early: 0, Misses: 0
715-> Hits: 2884, Late: 0, Early: 0, Misses: 0
717-> Hits: 1005, Late: 0, Early: 0, Misses: 0
71c-> Hits: 410, Late: 0, Early: 0, Misses: 0
71d-> Hits: 1130, Late: 0, Early: 0, Misses: 0
71e-> Hits: 1102, Late: 4, Early: 0, Misses: 2
71f-> Hits: 1415, Late: 0, Early: 0, Misses: 0
720-> Hits: 11121, Late: 2, Early: 0, Misses: 0
721-> Hits: 1634, Late: 422, Early: 0, Misses: 0
722-> Hits: 233, Late: 0, Early: 0, Misses: 0
723-> Hits: 1003, Late: 0, Early: 0, Misses: 0
724-> Hits: 1108, Late: 0, Early: 0, Misses: 0
726-> Hits: 1215, Late: 0, Early: 0, Misses: 0
729-> Hits: 91, Late: 0, Early: 0, Misses: 0
72c-> Hits: 253, Late: 38, Early: 0, Misses: 0
72d-> Hits: 1310, Late: 98, Early: 0, Misses: 0
72e-> Hits: 161, Late: 0, Early: 0, Misses: 0
730-> Hits: 7262, Late: 281, Early: 0, Misses: 2
732-> Hits: 1108, Late: 0, Early: 0, Misses: 0
733-> Hits: 184, Late: 0, Early: 0, Misses: 0
736-> Hits: 1290, Late: 108, Early: 0, Misses: 0
737-> Hits: 1, Late: 0, Early: 0, Misses: 0
739-> Hits: 236, Late: 0, Early: 0, Misses: 0
73b-> Hits: 49, Late: 0, Early: 0, Misses: 0
73e-> Hits: 49, Late: 0, Early: 0, Misses: 0
73f-> Hits: 47, Late: 0, Early: 0, Misses: 0
740-> Hits: 723, Late: 0, Early: 0, Misses: 0
741-> Hits: 63, Late: 10, Early: 0, Misses: 0
742-> Hits: 10, Late: 0, Early: 0, Misses: 0
743-> Hits: 588, Late: 0, Early: 0, Misses: 0
744-> Hits: 147, Late: 0, Early: 0, Misses: 0
745-> Hits: 717, Late: 0, Early: 0, Misses: 0
746-> Hits: 332, Late: 82, Early: 0, Misses: 3
747-> Hits: 1022, Late: 0, Early: 0, Misses: 0
749-> Hits: 6169, Late: 1001, Early: 0, Misses: 31
74a-> Hits: 1638, Late: 51, Early: 0, Misses: 7
74b-> Hits: 52, Late: 0, Early: 0, Misses: 0
74c-> Hits: 49, Late: 0, Early: 0, Misses: 0
74d-> Hits: 1359, Late: 0, Early: 0, Misses: 0
74e-> Hits: 1126, Late: 0, Early: 0, Misses: 0
74f-> Hits: 1108, Late: 0, Early: 0, Misses: 0
750-> Hits: 4652, Late: 0, Early: 0, Misses: 0
751-> Hits: 264, Late: 0, Early: 0, Misses: 0
752-> Hits: 1126, Late: 0, Early: 0, Misses: 0
754-> Hits: 4875, Late: 0, Early: 0, Misses: 0
755-> Hits: 1, Late: 48, Early: 0, Misses: 0
756-> Hits: 2418, Late: 0, Early: 0, Misses: 0
757-> Hits: 1129, Late: 0, Early: 0, Misses: 0
758-> Hits: 233, Late: 0, Early: 0, Misses: 0
759-> Hits: 1341, Late: 0, Early: 0, Misses: 0
75a-> Hits: 1108, Late: 0, Early: 0, Misses: 0
75b-> Hits: 307, Late: 18, Early: 0, Misses: 0
75d-> Hits: 233, Late: 0, Early: 0, Misses: 0
75e-> Hits: 232, Late: 0, Early: 0, Misses: 0
75f-> Hits: 233, Late: 0, Early: 0, Misses: 0
761-> Hits: 1340, Late: 1, Early: 0, Misses: 0
762-> Hits: 465, Late: 0, Early: 0, Misses: 0
764-> Hits: 35, Late: 0, Early: 0, Misses: 0
765-> Hits: 170, Late: 0, Early: 0, Misses: 0
767-> Hits: 1397, Late: 0, Early: 0, Misses: 1
76a-> Hits: 3724, Late: 0, Early: 0, Misses: 0
76b-> Hits: 1125, Late: 0, Early: 0, Misses: 1
76d-> Hits: 232, Late: 0, Early: 0, Misses: 0
770-> Hits: 3586, Late: 0, Early: 0, Misses: 0
773-> Hits: 114, Late: 2, Early: 0, Misses: 0
774-> Hits: 232, Late: 0, Early: 0, Misses: 0
775-> Hits: 910, Late: 198, Early: 0, Misses: 0
777-> Hits: 3074, Late: 0, Early: 0, Misses: 0
778-> Hits: 1154, Late: 0, Early: 0, Misses: 1
779-> Hits: 184, Late: 0, Early: 0, Misses: 0
77a-> Hits: 3210, Late: 0, Early: 0, Misses: 0
77b-> Hits: 2252, Late: 0, Early: 0, Misses: 0
77c-> Hits: 2094, Late: 0, Early: 0, Misses: 0
77e-> Hits: 3206, Late: 0, Early: 0, Misses: 0
780-> Hits: 2098, Late: 0, Early: 0, Misses: 0
782-> Hits: 2099, Late: 4, Early: 0, Misses: 0
783-> Hits: 1154, Late: 0, Early: 0, Misses: 1
784-> Hits: 2099, Late: 0, Early: 0, Misses: 0
785-> Hits: 2099, Late: 0, Early: 0, Misses: 0
787-> Hits: 11, Late: 0, Early: 0, Misses: 0
788-> Hits: 991, Late: 0, Early: 0, Misses: 0
78a-> Hits: 322, Late: 13, Early: 0, Misses: 0
78b-> Hits: 1108, Late: 0, Early: 0, Misses: 0
78e-> Hits: 232, Late: 0, Early: 0, Misses: 0
78f-> Hits: 995, Late: 0, Early: 0, Misses: 0
790-> Hits: 17959, Late: 0, Early: 0, Misses: 0
791-> Hits: 321, Late: 0, Early: 0, Misses: 1
792-> Hits: 990, Late: 1, Early: 0, Misses: 0
794-> Hits: 19516, Late: 220, Early: 0, Misses: 14
797-> Hits: 30, Late: 10, Early: 0, Misses: 0
798-> Hits: 958, Late: 0, Early: 0, Misses: 1
799-> Hits: 232, Late: 0, Early: 0, Misses: 0
79a-> Hits: 125, Late: 0, Early: 0, Misses: 0
79b-> Hits: 409, Late: 365, Early: 0, Misses: 2
79d-> Hits: 471, Late: 0, Early: 0, Misses: 0
79e-> Hits: 16, Late: 0, Early: 0, Misses: 0
79f-> Hits: 989, Late: 1, Early: 0, Misses: 1
7a0-> Hits: 232, Late: 0, Early: 0, Misses: 0
7a1-> Hits: 154, Late: 0, Early: 0, Misses: 0
7a4-> Hits: 521, Late: 4, Early: 0, Misses: 1
7a5-> Hits: 19959, Late: 21, Early: 0, Misses: 14
7a7-> Hits: 22, Late: 0, Early: 0, Misses: 0
7a8-> Hits: 991, Late: 0, Early: 0, Misses: 0
7a9-> Hits: 18140, Late: 650, Early: 0, Misses: 213
7ac-> Hits: 2839, Late: 11, Early: 0, Misses: 2
7b0-> Hits: 722, Late: 0, Early: 0, Misses: 0
7b1-> Hits: 64, Late: 1, Early: 0, Misses: 0
7b2-> Hits: 19012, Late: 9, Early: 0, Misses: 2
7b4-> Hits: 480, Late: 0, Early: 0, Misses: 0
7b5-> Hits: 19464, Late: 2, Early: 0, Misses: 0
7b8-> Hits: 124, Late: 0, Early: 0, Misses: 0
7b9-> Hits: 199, Late: 162, Early: 0, Misses: 0
7ba-> Hits: 22064, Late: 0, Early: 0, Misses: 0
7bb-> Hits: 932, Late: 94, Early: 0, Misses: 0
7bc-> Hits: 189, Late: 172, Early: 0, Misses: 0
7bd-> Hits: 210, Late: 0, Early: 0, Misses: 0
7bf-> Hits: 240, Late: 0, Early: 0, Misses: 0
7c0-> Hits: 89, Late: 9, Early: 0, Misses: 0
7c1-> Hits: 257, Late: 0, Early: 0, Misses: 0
7c4-> Hits: 781, Late: 99, Early: 0, Misses: 0
7c5-> Hits: 579, Late: 0, Early: 0, Misses: 0
7c7-> Hits: 348, Late: 0, Early: 0, Misses: 3
7c8-> Hits: 232, Late: 0, Early: 0, Misses: 0
7ca-> Hits: 4, Late: 0, Early: 0, Misses: 0
7cc-> Hits: 233, Late: 0, Early: 0, Misses: 0
7cd-> Hits: 666, Late: 0, Early: 0, Misses: 0
7d0-> Hits: 2131, Late: 0, Early: 0, Misses: 0
7d2-> Hits: 820, Late: 176, Early: 0, Misses: 112
7d8-> Hits: 162, Late: 0, Early: 0, Misses: 0
7da-> Hits: 1010, Late: 94, Early: 0, Misses: 3
7de-> Hits: 233, Late: 0, Early: 0, Misses: 0
7df-> Hits: 233, Late: 0, Early: 0, Misses: 0
7e0-> Hits: 1232, Late: 0, Early: 0, Misses: 0
7e1-> Hits: 233, Late: 0, Early: 0, Misses: 0
7e3-> Hits: 3790, Late: 0, Early: 0, Misses: 0
7e4-> Hits: 562, Late: 0, Early: 0, Misses: 1
7e5-> Hits: 466, Late: 0, Early: 0, Misses: 0
7e7-> Hits: 3796, Late: 0, Early: 0, Misses: 0
7e8-> Hits: 1806, Late: 0, Early: 0, Misses: 0
7eb-> Hits: 233, Late: 0, Early: 0, Misses: 0
7ec-> Hits: 825, Late: 165, Early: 0, Misses: 117
7ed-> Hits: 243, Late: 0, Early: 0, Misses: 0
7f0-> Hits: 232, Late: 0, Early: 0, Misses: 0
7f1-> Hits: 765, Late: 115, Early: 0, Misses: 0
7f4-> Hits: 705, Late: 179, Early: 0, Misses: 0
7f5-> Hits: 22, Late: 0, Early: 0, Misses: 0
7f7-> Hits: 851, Late: 0, Early: 0, Misses: 0
7f8-> Hits: 1087, Late: 17, Early: 0, Misses: 0
7f9-> Hits: 22485, Late: 218, Early: 0, Misses: 0
7fb-> Hits: 148, Late: 84, Early: 0, Misses: 0
7fc-> Hits: 1289, Late: 50, Early: 0, Misses: 2
7ff-> Hits: 232, Late: 0, Early: 0, Misses: 0
800-> Hits: 11, Late: 0, Early: 0, Misses: 0
804-> Hits: 1052, Late: 51, Early: 0, Misses: 5
806-> Hits: 74, Late: 0, Early: 0, Misses: 0
807-> Hits: 1342, Late: 0, Early: 0, Misses: 4
808-> Hits: 2, Late: 0, Early: 0, Misses: 0
80c-> Hits: 8972, Late: 4, Early: 0, Misses: 0
811-> Hits: 232, Late: 0, Early: 0, Misses: 0
814-> Hits: 233, Late: 0, Early: 0, Misses: 0
815-> Hits: 720, Late: 0, Early: 0, Misses: 0
817-> Hits: 233, Late: 0, Early: 0, Misses: 0
818-> Hits: 49, Late: 0, Early: 0, Misses: 0
819-> Hits: 232, Late: 0, Early: 0, Misses: 0
81b-> Hits: 116, Late: 0, Early: 0, Misses: 0
81d-> Hits: 591, Late: 1, Early: 0, Misses: 36
81e-> Hits: 1250, Late: 91, Early: 0, Misses: 0
81f-> Hits: 971, Late: 0, Early: 0, Misses: 1
820-> Hits: 8, Late: 0, Early: 0, Misses: 0
821-> Hits: 991, Late: 0, Early: 0, Misses: 0
823-> Hits: 1157, Late: 0, Early: 0, Misses: 0
824-> Hits: 232, Late: 0, Early: 0, Misses: 0
827-> Hits: 5, Late: 0, Early: 0, Misses: 0
82b-> Hits: 1109, Late: 0, Early: 0, Misses: 0
82c-> Hits: 991, Late: 0, Early: 0, Misses: 0
82d-> Hits: 25, Late: 0, Early: 0, Misses: 0
82f-> Hits: 842, Late: 0, Early: 0, Misses: 0
833-> Hits: 1123, Late: 0, Early: 0, Misses: 0
836-> Hits: 2793, Late: 0, Early: 0, Misses: 0
837-> Hits: 2629, Late: 0, Early: 0, Misses: 0
838-> Hits: 529, Late: 0, Early: 0, Misses: 0
83a-> Hits: 542, Late: 5, Early: 0, Misses: 4
83b-> Hits: 3540, Late: 12, Early: 0, Misses: 2
841-> Hits: 59, Late: 0, Early: 0, Misses: 0
846-> Hits: 991, Late: 0, Early: 0, Misses: 0
848-> Hits: 637, Late: 0, Early: 0, Misses: 0
84c-> Hits: 991, Late: 0, Early: 0, Misses: 0
84d-> Hits: 232, Late: 0, Early: 0, Misses: 0
84e-> Hits: 1108, Late: 0, Early: 0, Misses: 0
850-> Hits: 9, Late: 0, Early: 0, Misses: 0
851-> Hits: 991, Late: 0, Early: 0, Misses: 0
854-> Hits: 858, Late: 259, Early: 0, Misses: 0
857-> Hits: 216, Late: 0, Early: 0, Misses: 0
859-> Hits: 232, Late: 0, Early: 0, Misses: 0
860-> Hits: 464, Late: 0, Early: 0, Misses: 0
862-> Hits: 930, Late: 178, Early: 0, Misses: 0
864-> Hits: 617, Late: 524, Early: 0, Misses: 2
865-> Hits: 232, Late: 0, Early: 0, Misses: 0
867-> Hits: 923, Late: 0, Early: 0, Misses: 0
868-> Hits: 1111, Late: 0, Early: 0, Misses: 0
869-> Hits: 971, Late: 142, Early: 0, Misses: 1
86a-> Hits: 868, Late: 50, Early: 0, Misses: 6
86d-> Hits: 231, Late: 0, Early: 0, Misses: 1
86f-> Hits: 1573, Late: 97, Early: 0, Misses: 1
870-> Hits: 674, Late: 0, Early: 0, Misses: 0
871-> Hits: 1633, Late: 132, Early: 0, Misses: 0
874-> Hits: 232, Late: 0, Early: 0, Misses: 0
875-> Hits: 47, Late: 0, Early: 0, Misses: 0
876-> Hits: 24, Late: 0, Early: 0, Misses: 0
878-> Hits: 187, Late: 0, Early: 0, Misses: 0
879-> Hits: 3, Late: 0, Early: 0, Misses: 0
87d-> Hits: 231, Late: 0, Early: 0, Misses: 0
87e-> Hits: 923, Late: 0, Early: 0, Misses: 0
882-> Hits: 49, Late: 0, Early: 0, Misses: 0
887-> Hits: 309, Late: 0, Early: 0, Misses: 0
888-> Hits: 1988, Late: 0, Early: 0, Misses: 0
889-> Hits: 916, Late: 0, Early: 0, Misses: 7
88a-> Hits: 3041, Late: 0, Early: 0, Misses: 0
88b-> Hits: 2747, Late: 0, Early: 0, Misses: 0
88d-> Hits: 972, Late: 0, Early: 0, Misses: 0
88f-> Hits: 49, Late: 0, Early: 0, Misses: 0
890-> Hits: 237, Late: 0, Early: 0, Misses: 0
891-> Hits: 49, Late: 0, Early: 0, Misses: 0
893-> Hits: 49, Late: 0, Early: 0, Misses: 0
894-> Hits: 1021, Late: 0, Early: 0, Misses: 0
895-> Hits: 198, Late: 0, Early: 0, Misses: 0
896-> Hits: 875, Late: 0, Early: 0, Misses: 0
898-> Hits: 149, Late: 4, Early: 0, Misses: 0
89a-> Hits: 187, Late: 0, Early: 0, Misses: 0
89b-> Hits: 1347, Late: 172, Early: 0, Misses: 55
89c-> Hits: 563, Late: 0, Early: 0, Misses: 0
89d-> Hits: 52, Late: 0, Early: 0, Misses: 0
89f-> Hits: 1, Late: 0, Early: 0, Misses: 0
8a0-> Hits: 1532, Late: 603, Early: 0, Misses: 2
8a1-> Hits: 596, Late: 0, Early: 0, Misses: 0
8a2-> Hits: 1108, Late: 0, Early: 0, Misses: 0
8a3-> Hits: 9, Late: 0, Early: 0, Misses: 0
8a4-> Hits: 2548, Late: 361, Early: 0, Misses: 5
8a6-> Hits: 1108, Late: 0, Early: 0, Misses: 0
8a7-> Hits: 20, Late: 0, Early: 0, Misses: 0
8a8-> Hits: 1108, Late: 0, Early: 0, Misses: 0
8aa-> Hits: 1113, Late: 0, Early: 0, Misses: 0
8ab-> Hits: 1117, Late: 0, Early: 0, Misses: 0
8ad-> Hits: 2412, Late: 295, Early: 0, Misses: 27
8b0-> Hits: 572, Late: 224, Early: 0, Misses: 0
8b1-> Hits: 1724, Late: 0, Early: 0, Misses: 0
8b5-> Hits: 2143, Late: 306, Early: 0, Misses: 0
8b6-> Hits: 198, Late: 0, Early: 0, Misses: 0
8b7-> Hits: 9, Late: 0, Early: 0, Misses: 0
8b8-> Hits: 346, Late: 0, Early: 0, Misses: 0
8b9-> Hits: 875, Late: 0, Early: 0, Misses: 0
8bc-> Hits: 231, Late: 0, Early: 0, Misses: 0
8bd-> Hits: 1107, Late: 0, Early: 0, Misses: 0
8bf-> Hits: 232, Late: 0, Early: 0, Misses: 0
8c1-> Hits: 232, Late: 0, Early: 0, Misses: 0
8c3-> Hits: 235, Late: 0, Early: 0, Misses: 0
8c4-> Hits: 232, Late: 0, Early: 0, Misses: 0
8ca-> Hits: 875, Late: 0, Early: 0, Misses: 0
8cb-> Hits: 11, Late: 0, Early: 0, Misses: 0
8cd-> Hits: 281, Late: 0, Early: 0, Misses: 0
8cf-> Hits: 233, Late: 0, Early: 0, Misses: 0
8d0-> Hits: 126, Late: 0, Early: 0, Misses: 0
8d1-> Hits: 862, Late: 0, Early: 0, Misses: 0
8d2-> Hits: 1, Late: 0, Early: 0, Misses: 0
8d3-> Hits: 307, Late: 0, Early: 0, Misses: 0
8d4-> Hits: 1078, Late: 630, Early: 0, Misses: 0
8d7-> Hits: 161, Late: 0, Early: 0, Misses: 0
8d8-> Hits: 127, Late: 0, Early: 0, Misses: 0
8da-> Hits: 4, Late: 0, Early: 0, Misses: 0
8db-> Hits: 1574, Late: 0, Early: 0, Misses: 0
8dc-> Hits: 233, Late: 0, Early: 0, Misses: 0
8e0-> Hits: 1370, Late: 252, Early: 0, Misses: 0
8e2-> Hits: 763, Late: 0, Early: 0, Misses: 0
8e4-> Hits: 557, Late: 854, Early: 0, Misses: 68
8e5-> Hits: 181, Late: 0, Early: 0, Misses: 0
8e6-> Hits: 176, Late: 0, Early: 0, Misses: 0
8e8-> Hits: 188, Late: 0, Early: 0, Misses: 0
8e9-> Hits: 1051, Late: 0, Early: 0, Misses: 0
8ea-> Hits: 979, Late: 460, Early: 0, Misses: 35
8eb-> Hits: 1003, Late: 0, Early: 0, Misses: 0
8ec-> Hits: 416, Late: 0, Early: 0, Misses: 0
8ed-> Hits: 128, Late: 0, Early: 0, Misses: 0
8ee-> Hits: 1071, Late: 0, Early: 0, Misses: 0
8ef-> Hits: 196, Late: 0, Early: 0, Misses: 0
8f1-> Hits: 965, Late: 0, Early: 0, Misses: 0
8f2-> Hits: 875, Late: 0, Early: 0, Misses: 0
8f5-> Hits: 875, Late: 0, Early: 0, Misses: 0
8f6-> Hits: 87, Late: 50, Early: 0, Misses: 0
8f7-> Hits: 53, Late: 16, Early: 0, Misses: 0
8f8-> Hits: 232, Late: 0, Early: 0, Misses: 0
8f9-> Hits: 919, Late: 0, Early: 0, Misses: 4
8fa-> Hits: 500, Late: 239, Early: 0, Misses: 8
8fb-> Hits: 50, Late: 0, Early: 0, Misses: 0
8fc-> Hits: 24, Late: 0, Early: 0, Misses: 0
8fd-> Hits: 27, Late: 0, Early: 0, Misses: 0
8fe-> Hits: 545, Late: 242, Early: 0, Misses: 7
8ff-> Hits: 1135, Late: 0, Early: 0, Misses: 4
900-> Hits: 2898, Late: 0, Early: 0, Misses: 5
901-> Hits: 924, Late: 0, Early: 0, Misses: 0
902-> Hits: 503, Late: 237, Early: 0, Misses: 7
903-> Hits: 875, Late: 0, Early: 0, Misses: 0
904-> Hits: 144, Late: 0, Early: 0, Misses: 0
905-> Hits: 881, Late: 2, Early: 0, Misses: 0
907-> Hits: 925, Late: 0, Early: 0, Misses: 0
909-> Hits: 2320, Late: 193, Early: 0, Misses: 7
90a-> Hits: 875, Late: 0, Early: 0, Misses: 0
90b-> Hits: 2, Late: 231, Early: 0, Misses: 0
90c-> Hits: 143, Late: 57, Early: 0, Misses: 0
90d-> Hits: 129, Late: 0, Early: 0, Misses: 0
90f-> Hits: 747, Late: 0, Early: 0, Misses: 0
910-> Hits: 1312, Late: 51, Early: 0, Misses: 4
911-> Hits: 1164, Late: 153, Early: 0, Misses: 0
912-> Hits: 44, Late: 2, Early: 0, Misses: 0
913-> Hits: 747, Late: 0, Early: 0, Misses: 0
914-> Hits: 89, Late: 186, Early: 0, Misses: 0
915-> Hits: 233, Late: 0, Early: 0, Misses: 0
917-> Hits: 1293, Late: 274, Early: 0, Misses: 4
918-> Hits: 1108, Late: 0, Early: 0, Misses: 0
919-> Hits: 32, Late: 54, Early: 0, Misses: 0
91a-> Hits: 2295, Late: 0, Early: 0, Misses: 0
91b-> Hits: 816, Late: 0, Early: 0, Misses: 0
91d-> Hits: 880, Late: 0, Early: 0, Misses: 0
91f-> Hits: 1521, Late: 0, Early: 0, Misses: 0
921-> Hits: 880, Late: 0, Early: 0, Misses: 0
922-> Hits: 183, Late: 0, Early: 0, Misses: 0
923-> Hits: 523, Late: 5, Early: 0, Misses: 0
927-> Hits: 1155, Late: 0, Early: 0, Misses: 0
928-> Hits: 280, Late: 0, Early: 0, Misses: 0
929-> Hits: 195, Late: 0, Early: 0, Misses: 0
92b-> Hits: 3627, Late: 444, Early: 0, Misses: 0
92d-> Hits: 747, Late: 0, Early: 0, Misses: 0
92f-> Hits: 5575, Late: 1117, Early: 0, Misses: 221
930-> Hits: 798, Late: 0, Early: 0, Misses: 0
931-> Hits: 267, Late: 0, Early: 0, Misses: 0
932-> Hits: 43, Late: 63, Early: 0, Misses: 0
933-> Hits: 923, Late: 0, Early: 0, Misses: 0
934-> Hits: 496, Late: 0, Early: 0, Misses: 0
935-> Hits: 318, Late: 0, Early: 0, Misses: 0
936-> Hits: 1691, Late: 0, Early: 0, Misses: 0
937-> Hits: 1669, Late: 0, Early: 0, Misses: 1
938-> Hits: 281, Late: 0, Early: 0, Misses: 0
93a-> Hits: 220, Late: 33, Early: 0, Misses: 0
93b-> Hits: 232, Late: 0, Early: 0, Misses: 0
93c-> Hits: 232, Late: 0, Early: 0, Misses: 0
93d-> Hits: 13, Late: 220, Early: 0, Misses: 0
93e-> Hits: 990, Late: 107, Early: 0, Misses: 0
940-> Hits: 1060, Late: 215, Early: 0, Misses: 63
941-> Hits: 929, Late: 227, Early: 0, Misses: 0
942-> Hits: 232, Late: 0, Early: 0, Misses: 0
943-> Hits: 233, Late: 0, Early: 0, Misses: 0
944-> Hits: 568, Late: 226, Early: 0, Misses: 0
945-> Hits: 232, Late: 0, Early: 0, Misses: 0
947-> Hits: 233, Late: 0, Early: 0, Misses: 0
948-> Hits: 1116, Late: 36, Early: 0, Misses: 1
94c-> Hits: 97, Late: 1, Early: 0, Misses: 0
94d-> Hits: 929, Late: 0, Early: 0, Misses: 0
94f-> Hits: 922, Late: 0, Early: 0, Misses: 1
950-> Hits: 0, Late: 2, Early: 0, Misses: 0
952-> Hits: 1108, Late: 0, Early: 0, Misses: 0
953-> Hits: 946, Late: 34, Early: 0, Misses: 0
954-> Hits: 20, Late: 0, Early: 0, Misses: 0
955-> Hits: 20, Late: 0, Early: 0, Misses: 0
957-> Hits: 1262, Late: 0, Early: 0, Misses: 0
959-> Hits: 20, Late: 0, Early: 0, Misses: 0
95b-> Hits: 20, Late: 0, Early: 0, Misses: 0
95c-> Hits: 10, Late: 0, Early: 0, Misses: 0
95d-> Hits: 20, Late: 0, Early: 0, Misses: 0
95f-> Hits: 641, Late: 0, Early: 0, Misses: 0
960-> Hits: 1694, Late: 0, Early: 0, Misses: 1
961-> Hits: 11, Late: 0, Early: 0, Misses: 0
962-> Hits: 929, Late: 0, Early: 0, Misses: 0
963-> Hits: 1283, Late: 0, Early: 0, Misses: 0
965-> Hits: 929, Late: 0, Early: 0, Misses: 0
966-> Hits: 370, Late: 46, Early: 0, Misses: 9
967-> Hits: 1008, Late: 0, Early: 0, Misses: 0
96a-> Hits: 332, Late: 0, Early: 0, Misses: 0
96b-> Hits: 706, Late: 740, Early: 0, Misses: 2
96c-> Hits: 1574, Late: 0, Early: 0, Misses: 0
96d-> Hits: 1583, Late: 30, Early: 0, Misses: 0
96e-> Hits: 3940, Late: 17, Early: 0, Misses: 0
96f-> Hits: 1574, Late: 0, Early: 0, Misses: 0
970-> Hits: 259, Late: 0, Early: 0, Misses: 0
971-> Hits: 1612, Late: 47, Early: 0, Misses: 0
972-> Hits: 235, Late: 0, Early: 0, Misses: 0
973-> Hits: 1577, Late: 0, Early: 0, Misses: 0
974-> Hits: 327, Late: 128, Early: 0, Misses: 0
[...]
d65-> Hits: 122, Late: 160, Early: 0, Misses: 0
d67-> Hits: 232, Late: 0, Early: 0, Misses: 0
d68-> Hits: 233, Late: 0, Early: 0, Misses: 0
d6a-> Hits: 136, Late: 0, Early: 0, Misses: 0
d6b-> Hits: 1309, Late: 0, Early: 0, Misses: 0
d6d-> Hits: 246, Late: 30, Early: 0, Misses: 0
d6e-> Hits: 1252, Late: 128, Early: 0, Misses: 0
d71-> Hits: 233, Late: 0, Early: 0, Misses: 0
d72-> Hits: 2026, Late: 0, Early: 0, Misses: 0
d73-> Hits: 2026, Late: 0, Early: 0, Misses: 0
d75-> Hits: 2771, Late: 0, Early: 0, Misses: 0
d77-> Hits: 2026, Late: 0, Early: 0, Misses: 0
d79-> Hits: 2026, Late: 0, Early: 0, Misses: 0
d7a-> Hits: 138, Late: 1, Early: 0, Misses: 0
d7b-> Hits: 2026, Late: 0, Early: 0, Misses: 0
d7c-> Hits: 4172, Late: 0, Early: 0, Misses: 0
d7e-> Hits: 113, Late: 118, Early: 0, Misses: 0
d80-> Hits: 27062, Late: 32, Early: 0, Misses: 0
d84-> Hits: 49, Late: 0, Early: 0, Misses: 0
d85-> Hits: 1378, Late: 0, Early: 0, Misses: 0
d89-> Hits: 357782, Late: 19083, Early: 0, Misses: 0
d8a-> Hits: 4672, Late: 0, Early: 0, Misses: 0
d8c-> Hits: 6502, Late: 0, Early: 0, Misses: 0
d8d-> Hits: 125336, Late: 249606, Early: 0, Misses: 0
d8e-> Hits: 1176, Late: 202, Early: 0, Misses: 0
d91-> Hits: 4, Late: 0, Early: 0, Misses: 0
d93-> Hits: 2, Late: 0, Early: 0, Misses: 0
d95-> Hits: 232, Late: 0, Early: 0, Misses: 0
d99-> Hits: 42, Late: 190, Early: 0, Misses: 0
d9a-> Hits: 11, Late: 3, Early: 0, Misses: 0
d9b-> Hits: 144610, Late: 235315, Early: 0, Misses: 0
d9c-> Hits: 5610, Late: 0, Early: 0, Misses: 0
d9d-> Hits: 1439, Late: 0, Early: 0, Misses: 0
d9e-> Hits: 5631, Late: 0, Early: 0, Misses: 0
d9f-> Hits: 2196, Late: 0, Early: 0, Misses: 0
da0-> Hits: 5927, Late: 0, Early: 0, Misses: 0
da1-> Hits: 1374, Late: 211, Early: 0, Misses: 0
da2-> Hits: 6033, Late: 0, Early: 0, Misses: 0
da3-> Hits: 1091, Late: 0, Early: 0, Misses: 0
da4-> Hits: 7642, Late: 0, Early: 0, Misses: 0
da6-> Hits: 1472, Late: 0, Early: 0, Misses: 0
da7-> Hits: 1, Late: 0, Early: 0, Misses: 0
da8-> Hits: 767, Late: 0, Early: 0, Misses: 0
da9-> Hits: 466, Late: 0, Early: 0, Misses: 0
daa-> Hits: 147, Late: 0, Early: 0, Misses: 0
dab-> Hits: 101, Late: 0, Early: 0, Misses: 0
dad-> Hits: 143, Late: 0, Early: 0, Misses: 0
daf-> Hits: 1, Late: 0, Early: 0, Misses: 0
db0-> Hits: 61193, Late: 41325, Early: 0, Misses: 5
db1-> Hits: 10, Late: 84, Early: 0, Misses: 0
db2-> Hits: 1147, Late: 0, Early: 0, Misses: 0
db4-> Hits: 1, Late: 0, Early: 0, Misses: 0
db5-> Hits: 50, Late: 0, Early: 0, Misses: 0
db6-> Hits: 1147, Late: 0, Early: 0, Misses: 0
db8-> Hits: 1, Late: 0, Early: 0, Misses: 0
db9-> Hits: 1199, Late: 0, Early: 0, Misses: 0
dba-> Hits: 186, Late: 0, Early: 0, Misses: 0
dbb-> Hits: 1108, Late: 0, Early: 0, Misses: 0
dbc-> Hits: 875, Late: 0, Early: 0, Misses: 0
dbd-> Hits: 875, Late: 0, Early: 0, Misses: 0
dbf-> Hits: 75706, Late: 298056, Early: 0, Misses: 72
dc0-> Hits: 201, Late: 0, Early: 0, Misses: 0
dc4-> Hits: 1379, Late: 0, Early: 0, Misses: 0
dc5-> Hits: 1146, Late: 0, Early: 0, Misses: 0
dc7-> Hits: 2069, Late: 0, Early: 0, Misses: 0
dc9-> Hits: 1146, Late: 0, Early: 0, Misses: 0
dcb-> Hits: 18715, Late: 89684, Early: 0, Misses: 0
dcc-> Hits: 233, Late: 0, Early: 0, Misses: 0
dcd-> Hits: 1146, Late: 0, Early: 0, Misses: 0
dce-> Hits: 1146, Late: 0, Early: 0, Misses: 0
dcf-> Hits: 214375, Late: 147708, Early: 0, Misses: 64
dd0-> Hits: 1402, Late: 0, Early: 0, Misses: 0
dd3-> Hits: 55834, Late: 59897, Early: 0, Misses: 1
dd6-> Hits: 137, Late: 0, Early: 0, Misses: 0
dd8-> Hits: 1099, Late: 0, Early: 0, Misses: 0
ddb-> Hits: 360, Late: 0, Early: 0, Misses: 0
dde-> Hits: 230, Late: 0, Early: 0, Misses: 0
de0-> Hits: 30, Late: 73, Early: 0, Misses: 0
de1-> Hits: 1108, Late: 0, Early: 0, Misses: 0
de2-> Hits: 119400, Late: 255475, Early: 0, Misses: 0
de3-> Hits: 51, Late: 184, Early: 0, Misses: 2
de4-> Hits: 72, Late: 49, Early: 0, Misses: 0
de7-> Hits: 348, Late: 0, Early: 0, Misses: 0
de8-> Hits: 228, Late: 0, Early: 0, Misses: 0
de9-> Hits: 1108, Late: 0, Early: 0, Misses: 0
dea-> Hits: 12, Late: 0, Early: 0, Misses: 0
deb-> Hits: 693, Late: 15, Early: 0, Misses: 1
ded-> Hits: 236, Late: 0, Early: 0, Misses: 0
dee-> Hits: 32028, Late: 93931, Early: 0, Misses: 0
def-> Hits: 342, Late: 0, Early: 0, Misses: 1
df0-> Hits: 10, Late: 0, Early: 0, Misses: 0
df1-> Hits: 1111, Late: 0, Early: 0, Misses: 0
df2-> Hits: 56265, Late: 298825, Early: 0, Misses: 0
df3-> Hits: 97, Late: 0, Early: 0, Misses: 0
df5-> Hits: 1205, Late: 18, Early: 0, Misses: 0
df6-> Hits: 320665, Late: 41, Early: 0, Misses: 0
df8-> Hits: 97, Late: 0, Early: 0, Misses: 0
df9-> Hits: 365, Late: 4, Early: 0, Misses: 0
dfa-> Hits: 927, Late: 0, Early: 0, Misses: 8
dfb-> Hits: 92, Late: 0, Early: 0, Misses: 0
dfc-> Hits: 337, Late: 0, Early: 0, Misses: 0
dfe-> Hits: 829, Late: 77, Early: 0, Misses: 1
e00-> Hits: 211, Late: 50, Early: 0, Misses: 0
e02-> Hits: 374, Late: 0, Early: 0, Misses: 0
e03-> Hits: 148, Late: 0, Early: 0, Misses: 3
e04-> Hits: 373922, Late: 124, Early: 0, Misses: 0
e06-> Hits: 464, Late: 0, Early: 0, Misses: 0
e08-> Hits: 319, Late: 150, Early: 0, Misses: 0
e09-> Hits: 111, Late: 0, Early: 0, Misses: 0
e0a-> Hits: 507, Late: 0, Early: 0, Misses: 0
e0b-> Hits: 161, Late: 7, Early: 0, Misses: 0
e0c-> Hits: 464, Late: 0, Early: 0, Misses: 0
e0d-> Hits: 177, Late: 6, Early: 0, Misses: 0
e10-> Hits: 12311, Late: 1, Early: 0, Misses: 0
e12-> Hits: 101, Late: 0, Early: 0, Misses: 0
e14-> Hits: 373881, Late: 0, Early: 0, Misses: 0
e15-> Hits: 1, Late: 0, Early: 0, Misses: 6
e16-> Hits: 97, Late: 0, Early: 0, Misses: 0
e18-> Hits: 284825, Late: 0, Early: 0, Misses: 0
e19-> Hits: 129, Late: 0, Early: 0, Misses: 0
e1a-> Hits: 257609, Late: 24717, Early: 0, Misses: 3
e1d-> Hits: 297559, Late: 191, Early: 0, Misses: 0
e1f-> Hits: 1510, Late: 0, Early: 0, Misses: 0
e20-> Hits: 464, Late: 0, Early: 0, Misses: 0
e21-> Hits: 6, Late: 40, Early: 0, Misses: 0
e22-> Hits: 464, Late: 0, Early: 0, Misses: 0
e23-> Hits: 1550, Late: 0, Early: 0, Misses: 0
e24-> Hits: 2400, Late: 0, Early: 0, Misses: 0
e25-> Hits: 36, Late: 195, Early: 0, Misses: 2
e27-> Hits: 373832, Late: 1, Early: 0, Misses: 0
e29-> Hits: 1430, Late: 199, Early: 0, Misses: 2
e2a-> Hits: 201, Late: 0, Early: 0, Misses: 0
e2d-> Hits: 63, Late: 0, Early: 0, Misses: 0
e2e-> Hits: 213, Late: 83, Early: 0, Misses: 0
e30-> Hits: 1528, Late: 153, Early: 0, Misses: 0
e31-> Hits: 1, Late: 0, Early: 0, Misses: 0
e33-> Hits: 310431, Late: 1, Early: 0, Misses: 0
e35-> Hits: 2, Late: 0, Early: 0, Misses: 0
e36-> Hits: 233, Late: 0, Early: 0, Misses: 0
e37-> Hits: 1276755, Late: 2115, Early: 0, Misses: 0
e3a-> Hits: 2023, Late: 0, Early: 0, Misses: 0
e3d-> Hits: 33, Late: 200, Early: 0, Misses: 0
e3e-> Hits: 952180, Late: 1, Early: 0, Misses: 0
e40-> Hits: 467, Late: 31, Early: 0, Misses: 0
e41-> Hits: 331, Late: 233, Early: 0, Misses: 0
e42-> Hits: 185, Late: 32, Early: 0, Misses: 1
e44-> Hits: 38, Late: 0, Early: 0, Misses: 0
e45-> Hits: 232, Late: 0, Early: 0, Misses: 0
e47-> Hits: 35, Late: 196, Early: 0, Misses: 2
e48-> Hits: 579, Late: 233, Early: 0, Misses: 0
e49-> Hits: 232, Late: 0, Early: 0, Misses: 0
e4c-> Hits: 217741, Late: 1, Early: 0, Misses: 0
e4e-> Hits: 1108, Late: 0, Early: 0, Misses: 0
e50-> Hits: 232, Late: 0, Early: 0, Misses: 0
e54-> Hits: 1883, Late: 165, Early: 0, Misses: 9
e58-> Hits: 163, Late: 0, Early: 0, Misses: 0
e59-> Hits: 1256, Late: 11, Early: 0, Misses: 0
e5b-> Hits: 1102, Late: 0, Early: 0, Misses: 0
e5d-> Hits: 762, Late: 432, Early: 0, Misses: 0
e5e-> Hits: 1104, Late: 0, Early: 0, Misses: 0
e5f-> Hits: 11, Late: 0, Early: 0, Misses: 0
e60-> Hits: 374749, Late: 26, Early: 0, Misses: 3
e61-> Hits: 74, Late: 0, Early: 0, Misses: 159
e62-> Hits: 2994, Late: 0, Early: 0, Misses: 5
e64-> Hits: 1351, Late: 0, Early: 0, Misses: 0
e66-> Hits: 85, Late: 0, Early: 0, Misses: 0
e68-> Hits: 372054, Late: 0, Early: 0, Misses: 0
e69-> Hits: 3081, Late: 49, Early: 0, Misses: 4
e6a-> Hits: 53, Late: 0, Early: 0, Misses: 0
e6b-> Hits: 624, Late: 708, Early: 0, Misses: 0
e6c-> Hits: 3306, Late: 54, Early: 0, Misses: 0
e6d-> Hits: 1107, Late: 0, Early: 0, Misses: 0
e6f-> Hits: 374824, Late: 1, Early: 0, Misses: 0
e70-> Hits: 232, Late: 0, Early: 0, Misses: 0
e71-> Hits: 2952, Late: 2, Early: 0, Misses: 0
e73-> Hits: 374708, Late: 2, Early: 0, Misses: 6
e74-> Hits: 918, Late: 3, Early: 0, Misses: 2
e75-> Hits: 1108, Late: 0, Early: 0, Misses: 0
e76-> Hits: 1108, Late: 0, Early: 0, Misses: 0
e77-> Hits: 48, Late: 0, Early: 0, Misses: 0
e78-> Hits: 2929, Late: 0, Early: 0, Misses: 0
e79-> Hits: 8473, Late: 0, Early: 0, Misses: 0
e7a-> Hits: 12, Late: 0, Early: 0, Misses: 0
e7d-> Hits: 981, Late: 0, Early: 0, Misses: 0
e7e-> Hits: 1106, Late: 0, Early: 0, Misses: 0
e7f-> Hits: 2076, Late: 183, Early: 0, Misses: 0
e80-> Hits: 1671, Late: 0, Early: 0, Misses: 0
e82-> Hits: 1107, Late: 0, Early: 0, Misses: 0
e83-> Hits: 60, Late: 173, Early: 0, Misses: 0
e84-> Hits: 2215, Late: 0, Early: 0, Misses: 0
e85-> Hits: 572, Late: 0, Early: 0, Misses: 0
e86-> Hits: 3078, Late: 54, Early: 0, Misses: 1
e87-> Hits: 1644, Late: 27, Early: 0, Misses: 0
e8b-> Hits: 923, Late: 0, Early: 0, Misses: 0
e8c-> Hits: 360, Late: 28, Early: 0, Misses: 0
e8e-> Hits: 762, Late: 114, Early: 0, Misses: 0
e90-> Hits: 747, Late: 0, Early: 0, Misses: 0
e92-> Hits: 1, Late: 0, Early: 0, Misses: 0
e93-> Hits: 2, Late: 0, Early: 0, Misses: 0
e96-> Hits: 923, Late: 0, Early: 0, Misses: 0
e97-> Hits: 261, Late: 0, Early: 0, Misses: 0
e98-> Hits: 1190, Late: 0, Early: 0, Misses: 0
e9a-> Hits: 232, Late: 0, Early: 0, Misses: 0
e9c-> Hits: 2195, Late: 61, Early: 0, Misses: 2
ea3-> Hits: 233, Late: 0, Early: 0, Misses: 0
ea4-> Hits: 38, Late: 1, Early: 0, Misses: 194
ea5-> Hits: 340, Late: 0, Early: 0, Misses: 0
ea6-> Hits: 233, Late: 0, Early: 0, Misses: 0
ea7-> Hits: 1, Late: 0, Early: 0, Misses: 0
ea8-> Hits: 234, Late: 0, Early: 0, Misses: 0
ea9-> Hits: 2082, Late: 406, Early: 0, Misses: 106
eaa-> Hits: 234, Late: 0, Early: 0, Misses: 0
eac-> Hits: 1, Late: 0, Early: 0, Misses: 0
eaf-> Hits: 233, Late: 0, Early: 0, Misses: 0
eb0-> Hits: 1155, Late: 1, Early: 0, Misses: 0
eb1-> Hits: 233, Late: 0, Early: 0, Misses: 0
eb2-> Hits: 233, Late: 0, Early: 0, Misses: 0
eb3-> Hits: 340, Late: 0, Early: 0, Misses: 0
eb4-> Hits: 233, Late: 0, Early: 0, Misses: 0
eb5-> Hits: 29, Late: 203, Early: 0, Misses: 0
eb8-> Hits: 564, Late: 232, Early: 0, Misses: 0
ebb-> Hits: 6, Late: 227, Early: 0, Misses: 0
ebc-> Hits: 17, Late: 0, Early: 0, Misses: 0
ebd-> Hits: 923, Late: 0, Early: 0, Misses: 0
ebe-> Hits: 564, Late: 0, Early: 0, Misses: 0
ebf-> Hits: 203, Late: 0, Early: 0, Misses: 0
ec0-> Hits: 923, Late: 0, Early: 0, Misses: 0
ec2-> Hits: 129, Late: 47, Early: 0, Misses: 57
ec4-> Hits: 1165, Late: 0, Early: 0, Misses: 0
ec5-> Hits: 38, Late: 1, Early: 0, Misses: 195
ec7-> Hits: 233, Late: 0, Early: 0, Misses: 0
ec8-> Hits: 17, Late: 216, Early: 0, Misses: 0
ec9-> Hits: 515, Late: 0, Early: 0, Misses: 0
ecb-> Hits: 233, Late: 0, Early: 0, Misses: 0
ecd-> Hits: 942, Late: 0, Early: 0, Misses: 0
ece-> Hits: 1139, Late: 0, Early: 0, Misses: 0
ecf-> Hits: 785, Late: 16, Early: 0, Misses: 11
ed0-> Hits: 11281, Late: 991, Early: 0, Misses: 187
ed2-> Hits: 1074, Late: 12, Early: 0, Misses: 0
ed3-> Hits: 1205, Late: 0, Early: 0, Misses: 0
ed4-> Hits: 15899, Late: 2906, Early: 0, Misses: 219
ed6-> Hits: 6, Late: 227, Early: 0, Misses: 0
eda-> Hits: 232, Late: 0, Early: 0, Misses: 0
edb-> Hits: 274, Late: 0, Early: 0, Misses: 0
edd-> Hits: 329, Late: 0, Early: 0, Misses: 0
edf-> Hits: 232, Late: 0, Early: 0, Misses: 0
ee0-> Hits: 411, Late: 0, Early: 0, Misses: 0
ee1-> Hits: 256, Late: 0, Early: 0, Misses: 0
ee2-> Hits: 232, Late: 0, Early: 0, Misses: 0
ee3-> Hits: 1981, Late: 50, Early: 0, Misses: 10
ee4-> Hits: 232, Late: 0, Early: 0, Misses: 0
ee5-> Hits: 282, Late: 0, Early: 0, Misses: 0
ee7-> Hits: 15662, Late: 2957, Early: 0, Misses: 424
ee8-> Hits: 232, Late: 0, Early: 0, Misses: 0
ee9-> Hits: 214, Late: 1, Early: 0, Misses: 0
eea-> Hits: 4, Late: 0, Early: 0, Misses: 0
eeb-> Hits: 6061, Late: 1103, Early: 0, Misses: 152
eed-> Hits: 289, Late: 0, Early: 0, Misses: 0
eef-> Hits: 16761, Late: 1827, Early: 0, Misses: 379
ef0-> Hits: 482, Late: 0, Early: 0, Misses: 0
ef2-> Hits: 232, Late: 0, Early: 0, Misses: 0
ef3-> Hits: 16076, Late: 2969, Early: 0, Misses: 180
ef4-> Hits: 12, Late: 221, Early: 0, Misses: 0
ef5-> Hits: 463, Late: 0, Early: 0, Misses: 0
ef7-> Hits: 232, Late: 0, Early: 0, Misses: 0
ef9-> Hits: 326, Late: 0, Early: 0, Misses: 0
efa-> Hits: 551, Late: 0, Early: 0, Misses: 0
efb-> Hits: 232, Late: 0, Early: 0, Misses: 0
efc-> Hits: 232, Late: 0, Early: 0, Misses: 0
efd-> Hits: 43, Late: 0, Early: 0, Misses: 0
efe-> Hits: 1923, Late: 6, Early: 0, Misses: 0
f00-> Hits: 1259, Late: 0, Early: 0, Misses: 0
f01-> Hits: 92, Late: 48, Early: 0, Misses: 5
f02-> Hits: 1300, Late: 0, Early: 0, Misses: 0
f03-> Hits: 81, Late: 0, Early: 0, Misses: 0
f06-> Hits: 746, Late: 1, Early: 0, Misses: 0
f08-> Hits: 582, Late: 0, Early: 0, Misses: 0
f09-> Hits: 37, Late: 0, Early: 0, Misses: 0
f0a-> Hits: 233, Late: 0, Early: 0, Misses: 0
f0d-> Hits: 149, Late: 0, Early: 0, Misses: 0
f0f-> Hits: 978, Late: 2, Early: 0, Misses: 0
f11-> Hits: 148, Late: 0, Early: 0, Misses: 0
f14-> Hits: 584, Late: 0, Early: 0, Misses: 0
f15-> Hits: 902, Late: 201, Early: 0, Misses: 0
f16-> Hits: 233, Late: 0, Early: 0, Misses: 0
f17-> Hits: 591, Late: 0, Early: 0, Misses: 0
f19-> Hits: 734, Late: 0, Early: 0, Misses: 0
f1a-> Hits: 49, Late: 0, Early: 0, Misses: 0
f1b-> Hits: 769, Late: 0, Early: 0, Misses: 0
f1c-> Hits: 747, Late: 0, Early: 0, Misses: 0
f1d-> Hits: 824, Late: 0, Early: 0, Misses: 0
f26-> Hits: 616, Late: 0, Early: 0, Misses: 0
f27-> Hits: 30, Late: 20, Early: 0, Misses: 0
f2a-> Hits: 3, Late: 0, Early: 0, Misses: 0
f2e-> Hits: 14, Late: 219, Early: 0, Misses: 0
f32-> Hits: 233, Late: 0, Early: 0, Misses: 0
f34-> Hits: 7, Late: 3, Early: 0, Misses: 0
f40-> Hits: 233, Late: 0, Early: 0, Misses: 0
f50-> Hits: 57, Late: 2, Early: 0, Misses: 0
f53-> Hits: 1, Late: 232, Early: 0, Misses: 0
f54-> Hits: 23, Late: 209, Early: 0, Misses: 0
f57-> Hits: 747, Late: 0, Early: 0, Misses: 0
f58-> Hits: 17, Late: 0, Early: 0, Misses: 0
f5d-> Hits: 199, Late: 33, Early: 0, Misses: 0
f60-> Hits: 465, Late: 0, Early: 0, Misses: 0
f61-> Hits: 675, Late: 231, Early: 0, Misses: 0
f64-> Hits: 1069, Late: 270, Early: 0, Misses: 1
f68-> Hits: 242, Late: 125, Early: 0, Misses: 0
f6b-> Hits: 1113, Late: 33, Early: 0, Misses: 0
f6c-> Hits: 166, Late: 0, Early: 0, Misses: 0
f70-> Hits: 9126, Late: 1243, Early: 0, Misses: 27
f73-> Hits: 182, Late: 50, Early: 0, Misses: 0
f74-> Hits: 979, Late: 167, Early: 0, Misses: 0
f76-> Hits: 747, Late: 0, Early: 0, Misses: 0
f78-> Hits: 2781, Late: 192, Early: 0, Misses: 1
f79-> Hits: 232, Late: 0, Early: 0, Misses: 0
f7b-> Hits: 9167, Late: 37, Early: 0, Misses: 0
f7d-> Hits: 117, Late: 0, Early: 0, Misses: 0
f7e-> Hits: 575, Late: 0, Early: 0, Misses: 0
f7f-> Hits: 5302, Late: 265, Early: 0, Misses: 3
f81-> Hits: 1170, Late: 80, Early: 0, Misses: 0
f82-> Hits: 2511, Late: 218, Early: 0, Misses: 1
f83-> Hits: 16083, Late: 2983, Early: 0, Misses: 577
f85-> Hits: 1071, Late: 0, Early: 0, Misses: 0
f87-> Hits: 1095, Late: 0, Early: 0, Misses: 0
f88-> Hits: 1100, Late: 0, Early: 0, Misses: 0
f8d-> Hits: 14864, Late: 2050, Early: 0, Misses: 370
f90-> Hits: 713, Late: 27, Early: 0, Misses: 0
f93-> Hits: 2026, Late: 0, Early: 0, Misses: 0
f95-> Hits: 232, Late: 0, Early: 0, Misses: 0
f97-> Hits: 635, Late: 3, Early: 0, Misses: 0
f9c-> Hits: 2478, Late: 237, Early: 0, Misses: 15
f9d-> Hits: 34, Late: 15, Early: 0, Misses: 0
f9e-> Hits: 10638, Late: 266, Early: 0, Misses: 1
fa0-> Hits: 288, Late: 0, Early: 0, Misses: 0
fa1-> Hits: 830, Late: 310, Early: 0, Misses: 6
fa4-> Hits: 1126, Late: 332, Early: 0, Misses: 3
fa8-> Hits: 1379, Late: 35, Early: 0, Misses: 0
fab-> Hits: 8, Late: 0, Early: 0, Misses: 0
fac-> Hits: 747, Late: 0, Early: 0, Misses: 0
faf-> Hits: 1106, Late: 0, Early: 0, Misses: 0
fb0-> Hits: 3008, Late: 503, Early: 0, Misses: 0
fb2-> Hits: 3051, Late: 0, Early: 0, Misses: 0
fb3-> Hits: 3714, Late: 0, Early: 0, Misses: 0
fb4-> Hits: 2761, Late: 0, Early: 0, Misses: 0
fb5-> Hits: 9499, Late: 3, Early: 0, Misses: 0
fb9-> Hits: 259, Late: 18, Early: 0, Misses: 0
fba-> Hits: 6, Late: 0, Early: 0, Misses: 0
fbb-> Hits: 1126, Late: 0, Early: 0, Misses: 0
fbc-> Hits: 232, Late: 0, Early: 0, Misses: 0
fbd-> Hits: 255, Late: 0, Early: 0, Misses: 0
fbf-> Hits: 1045, Late: 513, Early: 0, Misses: 0
fc1-> Hits: 232, Late: 0, Early: 0, Misses: 0
fc2-> Hits: 747, Late: 0, Early: 0, Misses: 0
fc3-> Hits: 989, Late: 96, Early: 0, Misses: 0
fc5-> Hits: 232, Late: 0, Early: 0, Misses: 0
fc7-> Hits: 5751, Late: 2181, Early: 0, Misses: 20
fc8-> Hits: 1126, Late: 0, Early: 0, Misses: 0
fcc-> Hits: 1032, Late: 0, Early: 0, Misses: 0
fce-> Hits: 6886, Late: 209, Early: 0, Misses: 4
fd2-> Hits: 756, Late: 495, Early: 0, Misses: 0
fd3-> Hits: 1524, Late: 0, Early: 0, Misses: 0
fd5-> Hits: 435, Late: 0, Early: 0, Misses: 0
fd6-> Hits: 457, Late: 0, Early: 0, Misses: 0
fd7-> Hits: 637, Late: 0, Early: 0, Misses: 0
fd8-> Hits: 1096, Late: 0, Early: 0, Misses: 0
fd9-> Hits: 398, Late: 0, Early: 0, Misses: 0
fda-> Hits: 7511, Late: 0, Early: 0, Misses: 0
fdb-> Hits: 398, Late: 0, Early: 0, Misses: 0
fdc-> Hits: 1440, Late: 0, Early: 0, Misses: 0
fdf-> Hits: 11, Late: 0, Early: 0, Misses: 0
fe0-> Hits: 1977, Late: 0, Early: 0, Misses: 0
fe4-> Hits: 875, Late: 0, Early: 0, Misses: 5
fe7-> Hits: 1108, Late: 0, Early: 0, Misses: 0
fe8-> Hits: 7, Late: 0, Early: 0, Misses: 0
fe9-> Hits: 3, Late: 0, Early: 0, Misses: 4
feb-> Hits: 18, Late: 0, Early: 0, Misses: 0
fec-> Hits: 115, Late: 2, Early: 0, Misses: 0
fed-> Hits: 7, Late: 0, Early: 0, Misses: 0
fee-> Hits: 16, Late: 0, Early: 0, Misses: 0
fef-> Hits: 7, Late: 0, Early: 0, Misses: 0
ff0-> Hits: 9230, Late: 308, Early: 0, Misses: 0
ff1-> Hits: 735, Late: 0, Early: 0, Misses: 2
ff2-> Hits: 7, Late: 0, Early: 0, Misses: 0
ff3-> Hits: 9, Late: 0, Early: 0, Misses: 0
ff5-> Hits: 337, Late: 98, Early: 0, Misses: 0
ff7-> Hits: 52, Late: 0, Early: 0, Misses: 0
ff8-> Hits: 875, Late: 5, Early: 0, Misses: 0
ff9-> Hits: 496, Late: 461, Early: 0, Misses: 0
ffd-> Hits: 306, Late: 774, Early: 0, Misses: 0
Total misses (from ip) 2345243
Total accesses (misses) 18716376 2345243
Pref: Addr 0 IP 0 Current 0
L2 IP Table Read Accesses: 4707618
L2 IP Table Write Accesses: 3695455
L2 IP Table Tag Read Accesses: 2364027
L2 IP Table Tag Write Accesses: 2364027

DRAM Statistics
 CHANNEL 0
 RQ ROW_BUFFER_HIT:     987278  ROW_BUFFER_MISS:     539245
 DBUS_CONGESTED:        192
 WQ ROW_BUFFER_HIT:        877  ROW_BUFFER_MISS:      10123  FULL:          0

 AVG_CONGESTED_CYCLE: 4
 All warmup complete: 2
Channel 0 Bank busy for read cycles: 0
Channel 0 Bank busy for write cycles: 0
Channel 0
Rank 0
0banks busy for read cycles: 86076345
0banks busy for write cycles: 8178
1banks busy for read cycles: 30675377
1banks busy for write cycles: 1313685
2banks busy for read cycles: 17611737
2banks busy for write cycles: 231071
3banks busy for read cycles: 10022637
3banks busy for write cycles: 71928
4banks busy for read cycles: 5242428
4banks busy for write cycles: 18360
5banks busy for read cycles: 1948631
5banks busy for write cycles: 4653
6banks busy for read cycles: 474650
6banks busy for write cycles: 1811
7banks busy for read cycles: 75943
7banks busy for write cycles: 188
8banks busy for read cycles: 24507
8banks busy for write cycles: 0

CPU 0 Branch Prediction Accuracy: 94.9771% MPKI: 13.0224 Average ROB Occupancy at Mispredict: 36.9179
Branch types
NOT_BRANCH: 37037113 74.0742%
BRANCH_DIRECT_JUMP: 125745 0.25149%
BRANCH_INDIRECT: 22046 0.044092%
BRANCH_CONDITIONAL: 11639280 23.2786%
BRANCH_DIRECT_CALL: 323608 0.647216%
BRANCH_INDIRECT_CALL: 264324 0.528648%
BRANCH_RETURN: 587932 1.17586%
BRANCH_OTHER: 0 0%

DRAM PAGES: 1048576
Allocated PAGES: 11043
