
*** ChampSim Multicore Out-of-Order Simulator ***

Warmup Instructions: 50000000
Simulation Instructions: 50000000
Number of CPUs: 1
LLC sets: 2048
LLC ways: 16
Off-chip DRAM Size: 4096 MB Channels: 1 Width: 64-bit Data Rate: 6400 MT/s
CPU 0 runs ../tracer/traces/621.wrf_s-6673B.champsimtrace.xz
.xz
CPU 0 Bimodal branch predictor
BTB has LRU replacement policy
ITLB has LRU replacement policy
DTLB has LRU replacement policy
STLB has LRU replacement policy
L1I has LRU replacement policy
L1D has LRU replacement policy
L2C has LRU replacement policy
Initialize DRRIP state for LLC
Heartbeat CPU 0 instructions: 10000002 cycles: 3558530 heartbeat IPC: 2.81015 cumulative IPC: 2.81015 (Simulation time: 0 hr 0 min 53 sec) 
Heartbeat CPU 0 instructions: 20000003 cycles: 6463799 heartbeat IPC: 3.44202 cumulative IPC: 3.09416 (Simulation time: 0 hr 1 min 37 sec) 
Heartbeat CPU 0 instructions: 30000000 cycles: 9283900 heartbeat IPC: 3.54597 cumulative IPC: 3.2314 (Simulation time: 0 hr 2 min 17 sec) 
Heartbeat CPU 0 instructions: 40000002 cycles: 12169193 heartbeat IPC: 3.46585 cumulative IPC: 3.28699 (Simulation time: 0 hr 2 min 59 sec) 
Heartbeat CPU 0 instructions: 50000000 cycles: 15072593 heartbeat IPC: 3.44424 cumulative IPC: 3.31728 (Simulation time: 0 hr 3 min 39 sec) 

Warmup complete CPU 0 instructions: 50000004 cycles: 15072594 (Simulation time: 0 hr 3 min 39 sec) 

Heartbeat CPU 0 instructions: 60000001 cycles: 28320897 heartbeat IPC: 0.754814 cumulative IPC: 0.754813 (Simulation time: 0 hr 4 min 40 sec) 
Heartbeat CPU 0 instructions: 70000000 cycles: 43663824 heartbeat IPC: 0.651766 cumulative IPC: 0.699515 (Simulation time: 0 hr 5 min 58 sec) 
Heartbeat CPU 0 instructions: 80000000 cycles: 55654622 heartbeat IPC: 0.833973 cumulative IPC: 0.739243 (Simulation time: 0 hr 6 min 54 sec) 
Heartbeat CPU 0 instructions: 90000003 cycles: 69029126 heartbeat IPC: 0.747692 cumulative IPC: 0.741337 (Simulation time: 0 hr 7 min 55 sec) 
Heartbeat CPU 0 instructions: 100000000 cycles: 85601693 heartbeat IPC: 0.603407 cumulative IPC: 0.708927 (Simulation time: 0 hr 9 min 15 sec) 
Finished CPU 0 instructions: 50000002 cycles: 70529102 cumulative IPC: 0.708927 (Simulation time: 0 hr 9 min 15 sec) 

ChampSim completed all CPUs

Region of Interest Statistics

CPU 0 cumulative IPC: 0.708927 instructions: 50000002 cycles: 70529102
ITLB TOTAL     ACCESS:    7545871  HIT:    7545790  MISS:         81  HIT %:    99.9989  MISS %: 0.00107343   MPKI: 0.00162
ITLB LOAD TRANSLATION ACCESS:    7545871  HIT:    7545790  MISS:         81  HIT %:    99.9989  MISS %: 0.00107343   MPKI: 0.00162
ITLB PREFETCH  REQUESTED:          0  ISSUED:          0  USEFUL:          0  USELESS:          0
ITLB USEFUL LOAD PREFETCHES:          0 PREFETCH ISSUED TO LOWER LEVEL:          0  ACCURACY: -nan
ITLB TIMELY PREFETCHES:          0 LATE PREFETCHES: 0 DROPPED PREFETCHES: 0
ITLB PREFETCHES SAME FILL-ORIGIN LEVEL: 0 DIFFERENT FILL-ORIGIN LEVEL: 0
ITLB AVERAGE MISS LATENCY: 238.16 cycles
ITLB RQ	ACCESS:    9399283	FORWARD:          0	MERGED:    1853384	TO_CACHE:    7545899

DTLB TOTAL     ACCESS:   14653727  HIT:   14506770  MISS:     146957  HIT %:    98.9971  MISS %:    1.00286   MPKI: 2.93914
DTLB LOAD TRANSLATION ACCESS:   14653727  HIT:   14506770  MISS:     146957  HIT %:    98.9971  MISS %:    1.00286   MPKI: 2.93914
DTLB PREFETCH  REQUESTED:          0  ISSUED:          0  USEFUL:          0  USELESS:          0
DTLB USEFUL LOAD PREFETCHES:          0 PREFETCH ISSUED TO LOWER LEVEL:          0  ACCURACY: -nan
DTLB TIMELY PREFETCHES:          0 LATE PREFETCHES: 0 DROPPED PREFETCHES: 0
DTLB PREFETCHES SAME FILL-ORIGIN LEVEL: 0 DIFFERENT FILL-ORIGIN LEVEL: 0
DTLB AVERAGE MISS LATENCY: 20.8509 cycles
DTLB RQ	ACCESS:   16611276	FORWARD:          0	MERGED:    1937033	TO_CACHE:   14674243

STLB TOTAL     ACCESS:     908569  HIT:     893297  MISS:      15272  HIT %:    98.3191  MISS %:    1.68088   MPKI: 0.30544
STLB LOAD TRANSLATION ACCESS:     147038  HIT:     131766  MISS:      15272  HIT %:    89.6136  MISS %:    10.3864   MPKI: 0.30544
STLB TRANSLATION FROM L1D PREFETCHER ACCESS:     761531  HIT:     761531  MISS:          0  HIT %:        100  MISS %:          0   MPKI: 0
STLB PREFETCH  REQUESTED:          0  ISSUED:          0  USEFUL:          0  USELESS:          0
STLB USEFUL LOAD PREFETCHES:          0 PREFETCH ISSUED TO LOWER LEVEL:          0  ACCURACY: -nan
STLB TIMELY PREFETCHES:          0 LATE PREFETCHES: 0 DROPPED PREFETCHES: 0
STLB PREFETCHES SAME FILL-ORIGIN LEVEL: 0 DIFFERENT FILL-ORIGIN LEVEL: 0
STLB AVERAGE MISS LATENCY: 114.295 cycles
STLB RQ	ACCESS:    1327740	FORWARD:          0	MERGED:     419171	TO_CACHE:     908569

STLB Hit, L1D data hit: 0
STLB Hit, L2C data hit: 0
STLB Hit, LLC data hit: 0
STLB Hit, LLC data miss: 0
STLB STLB hints to L2: 0
L1D TOTAL     ACCESS:   17120137  HIT:   15280049  MISS:    1840088  HIT %:    89.2519  MISS %:    10.7481   MPKI: 36.8018
L1D LOAD      ACCESS:   12967672  HIT:   12380158  MISS:     587514  HIT %:    95.4694  MISS %:    4.53061   MPKI: 11.7503
L1D RFO       ACCESS:    3105585  HIT:    2897429  MISS:     208156  HIT %:    93.2974  MISS %:    6.70263   MPKI: 4.16312
L1D PREFETCH  ACCESS:    1046880  HIT:       2462  MISS:    1044418  HIT %:   0.235175  MISS %:    99.7648   MPKI: 20.8884
AGUS PREFETCH L1 MISS: 0
L1D PREFETCH  REQUESTED:    2362581  ISSUED:    2362581  USEFUL:     930250  USELESS:     114182
L1D USEFUL LOAD PREFETCHES:     930250 PREFETCH ISSUED TO LOWER LEVEL:    1169124  ACCURACY: 79.5681
L1D TIMELY PREFETCHES:     930250 LATE PREFETCHES: 59436 DROPPED PREFETCHES: 0
L1D PREFETCHES SAME FILL-ORIGIN LEVEL: 1104358 DIFFERENT FILL-ORIGIN LEVEL: 64766
L1D AVERAGE MISS LATENCY: 1.85292e+06 cycles
L1D RQ	ACCESS:   16703998	FORWARD:          0	MERGED:    3568213	TO_CACHE:   13127029
L1D WQ	ACCESS:    3489006	FORWARD:       8787	MERGED:       4759	TO_CACHE:    3484247
L1D PQ	ACCESS:    1181879	FORWARD:          0	MERGED:       1146	TO_CACHE:    1180702

L1D UNIQUE REGIONS ACCESSED: 0
L1D REGIONS CONFLICTS: 0
L1D Cross Page Prefetch Requests: 0
L1D Same Page Prefetch Requests: 2022110
L1D ROI Sum of L1D PQ occupancy: 17118304
L1D PREFETCHES PUSHED FROM L2C: 0
L1I TOTAL     ACCESS:    9397912  HIT:    9395134  MISS:       2778  HIT %:    99.9704  MISS %:  0.0295598   MPKI: 0.05556
L1I LOAD      ACCESS:    9397912  HIT:    9395134  MISS:       2778  HIT %:    99.9704  MISS %:  0.0295598   MPKI: 0.05556
L1I PREFETCH  REQUESTED:          0  ISSUED:          0  USEFUL:          0  USELESS:          0
L1I USEFUL LOAD PREFETCHES:          0 PREFETCH ISSUED TO LOWER LEVEL:          0  ACCURACY: -nan
L1I TIMELY PREFETCHES:          0 LATE PREFETCHES: 0 DROPPED PREFETCHES: 0
L1I PREFETCHES SAME FILL-ORIGIN LEVEL: 0 DIFFERENT FILL-ORIGIN LEVEL: 0
L1I AVERAGE MISS LATENCY: 217.436 cycles
L1I RQ	ACCESS:   12970335	FORWARD:          0	MERGED:    3571052	TO_CACHE:    9399283

BTB TOTAL     ACCESS:    2203354  HIT:    2197120  MISS:       6234  HIT %:    99.7171  MISS %:   0.282932   MPKI: 0.12468
BTB BRANCH_DIRECT_JUMP	ACCESS:       3916  HIT:       3875  MISS:         41
BTB BRANCH_INDIRECT	ACCESS:          0  HIT:          0  MISS:          0
BTB BRANCH_CONDITIONAL	ACCESS:    2181746  HIT:    2181274  MISS:        472
BTB BRANCH_DIRECT_CALL	ACCESS:       8847  HIT:       8610  MISS:        237
BTB BRANCH_INDIRECT_CALL	ACCESS:          0  HIT:          0  MISS:          0
BTB BRANCH_RETURN	ACCESS:       8845  HIT:       3361  MISS:       5484
BTB BRANCH_OTHER ACCESS:          0  HIT:          0  MISS:          0

L2C TOTAL     ACCESS:    2507565  HIT:    1171272  MISS:    1336293  HIT %:    46.7095  MISS %:    53.2905   MPKI: 26.7259
L2C LOAD      ACCESS:     530830  HIT:     415267  MISS:     115563  HIT %:    78.2298  MISS %:    21.7702   MPKI: 2.31126
L2C DATA LOAD MPKI: 2.2557
L2C INSTRUCTION LOAD MPKI: 0.05556
L2C RFO       ACCESS:     207649  HIT:     100507  MISS:     107142  HIT %:    48.4024  MISS %:    51.5976   MPKI: 2.14284
L2C PREFETCH  ACCESS:    1145387  HIT:      34572  MISS:    1110815  HIT %:    3.01837  MISS %:    96.9816   MPKI: 22.2163
AGUS PREFETCH L1 MISS: 0
L2C DATA PREFETCH MPKI: 22.2163
L2C INSTRUCTION PREFETCH MPKI: 0
L2C WRITEBACK ACCESS:     608312  HIT:     608175  MISS:        137  HIT %:    99.9775  MISS %:  0.0225213   MPKI: 0.00274
L2C LOAD TRANSLATION ACCESS:      15387  HIT:      12751  MISS:       2636  HIT %:    82.8687  MISS %:    17.1313   MPKI: 0.05272
L2C PREFETCH  REQUESTED:          0  ISSUED:          0  USEFUL:     254364  USELESS:     858840
L2C USEFUL LOAD PREFETCHES:     254364 PREFETCH ISSUED TO LOWER LEVEL:    1111379  ACCURACY: 22.8872
L2C TIMELY PREFETCHES:     254364 LATE PREFETCHES: 564 DROPPED PREFETCHES: 0
L2C PREFETCHES SAME FILL-ORIGIN LEVEL: 62287 DIFFERENT FILL-ORIGIN LEVEL: 0
L2C AVERAGE MISS LATENCY: 255.899 cycles
L2C RQ	ACCESS:     753907	FORWARD:          0	MERGED:          0	TO_CACHE:     753878
L2C WQ	ACCESS:     608312	FORWARD:         29	MERGED:          0	TO_CACHE:     608312
L2C PQ	ACCESS:    1167852	FORWARD:          0	MERGED:          6	TO_CACHE:    1167846

L2C Instructions Evicting Data 2776
L2C Translations Evicting Data 2627
L2C Data Evicting Data 1325344
L2C Instructions Evicting Instructions 1
L2C Translations Evicting Instructions 3
L2C Data Evicting Instructions 2774
L2C Instructions Evicting Translations 1
L2C Translations Evicting Translations 6
L2C Data Evicting Translations 2624
L2C Dense regions hint from L2: 0
PSCL5 TOTAL     ACCESS:      15272  HIT:      15272  MISS:          0  HIT %:        100  MISS %:          0   MPKI: 0
PSCL5 LOAD TRANSLATION ACCESS:      15272  HIT:      15272  MISS:          0  HIT %:        100  MISS %:          0   MPKI: 0
PSCL5 PREFETCH  REQUESTED:          0  ISSUED:          0  USEFUL:          0  USELESS:          0
PSCL5 USEFUL LOAD PREFETCHES:          0 PREFETCH ISSUED TO LOWER LEVEL:          0  ACCURACY: -nan
PSCL5 TIMELY PREFETCHES:          0 LATE PREFETCHES: 0 DROPPED PREFETCHES: 0
PSCL5 PREFETCHES SAME FILL-ORIGIN LEVEL: 0 DIFFERENT FILL-ORIGIN LEVEL: 0

PSCL4 TOTAL     ACCESS:      15272  HIT:      15272  MISS:          0  HIT %:        100  MISS %:          0   MPKI: 0
PSCL4 LOAD TRANSLATION ACCESS:      15272  HIT:      15272  MISS:          0  HIT %:        100  MISS %:          0   MPKI: 0
PSCL4 PREFETCH  REQUESTED:          0  ISSUED:          0  USEFUL:          0  USELESS:          0
PSCL4 USEFUL LOAD PREFETCHES:          0 PREFETCH ISSUED TO LOWER LEVEL:          0  ACCURACY: -nan
PSCL4 TIMELY PREFETCHES:          0 LATE PREFETCHES: 0 DROPPED PREFETCHES: 0
PSCL4 PREFETCHES SAME FILL-ORIGIN LEVEL: 0 DIFFERENT FILL-ORIGIN LEVEL: 0

PSCL3 TOTAL     ACCESS:      15272  HIT:      15272  MISS:          0  HIT %:        100  MISS %:          0   MPKI: 0
PSCL3 LOAD TRANSLATION ACCESS:      15272  HIT:      15272  MISS:          0  HIT %:        100  MISS %:          0   MPKI: 0
PSCL3 PREFETCH  REQUESTED:          0  ISSUED:          0  USEFUL:          0  USELESS:          0
PSCL3 USEFUL LOAD PREFETCHES:          0 PREFETCH ISSUED TO LOWER LEVEL:          0  ACCURACY: -nan
PSCL3 TIMELY PREFETCHES:          0 LATE PREFETCHES: 0 DROPPED PREFETCHES: 0
PSCL3 PREFETCHES SAME FILL-ORIGIN LEVEL: 0 DIFFERENT FILL-ORIGIN LEVEL: 0

PSCL2 TOTAL     ACCESS:      15272  HIT:      15157  MISS:        115  HIT %:     99.247  MISS %:   0.753012   MPKI: 0.0023
PSCL2 LOAD TRANSLATION ACCESS:      15272  HIT:      15157  MISS:        115  HIT %:     99.247  MISS %:   0.753012   MPKI: 0.0023
PSCL2 PREFETCH  REQUESTED:          0  ISSUED:          0  USEFUL:          0  USELESS:          0
PSCL2 USEFUL LOAD PREFETCHES:          0 PREFETCH ISSUED TO LOWER LEVEL:          0  ACCURACY: -nan
PSCL2 TIMELY PREFETCHES:          0 LATE PREFETCHES: 0 DROPPED PREFETCHES: 0
PSCL2 PREFETCHES SAME FILL-ORIGIN LEVEL: 0 DIFFERENT FILL-ORIGIN LEVEL: 0

LLC TOTAL     ACCESS:    1771719  HIT:     317228  MISS:    1454491  HIT %:    17.9051  MISS %:    82.0949   MPKI: 29.0898
LLC LOAD      ACCESS:     115007  HIT:      32667  MISS:      82340  HIT %:    28.4044  MISS %:    71.5956   MPKI: 1.6468
LLC RFO       ACCESS:     107130  HIT:       2444  MISS:     104686  HIT %:    2.28134  MISS %:    97.7187   MPKI: 2.09372
LLC PREFETCH  ACCESS:    1111379  HIT:     172943  MISS:     938436  HIT %:    15.5611  MISS %:    84.4389   MPKI: 18.7687
AGUS PREFETCH L1 MISS: 0
LLC WRITEBACK ACCESS:     435567  HIT:     109115  MISS:     326452  HIT %:    25.0513  MISS %:    74.9487   MPKI: 6.52904
LLC LOAD TRANSLATION ACCESS:       2636  HIT:         59  MISS:       2577  HIT %:    2.23824  MISS %:    97.7618   MPKI: 0.05154
LLC PREFETCH  REQUESTED:          0  ISSUED:          0  USEFUL:       1717  USELESS:     942882
LLC USEFUL LOAD PREFETCHES:       1717 PREFETCH ISSUED TO LOWER LEVEL:     938436  ACCURACY: 0.182964
LLC TIMELY PREFETCHES:       1717 LATE PREFETCHES: 0 DROPPED PREFETCHES: 0
LLC PREFETCHES SAME FILL-ORIGIN LEVEL: 0 DIFFERENT FILL-ORIGIN LEVEL: 0
LLC AVERAGE MISS LATENCY: 207.439 cycles
LLC RQ	ACCESS:     224788	FORWARD:          0	MERGED:          0	TO_CACHE:     224784
LLC WQ	ACCESS:     435570	FORWARD:          4	MERGED:          0	TO_CACHE:     435570
LLC PQ	ACCESS:    1111379	FORWARD:          0	MERGED:          0	TO_CACHE:    1111379

LLC Dense regions hint to LLC: 0

RAW hits: 61724
Loads Generated: 16765722
Loads sent to L1D: 16703998
Stores Generated: 3489005
Stores sent to L1D: 3489006
Major fault: 0 Minor fault: 7750
Allocated PAGES: 7750
=== CPU 0 L1D Prefetcher Statistics ===
[MLOP] History of tracked zone:
IIIIIIIIIIIIIIIIIIIIIIIIIIIIIIIIIIIIIIIIIIIIIIIIIIIIIIIIIIIIIIII
A11111III1IIIIIIIIIIIIIIIIIIIIIIIIIIIIIIIIIIIIIIIIIIIIIIIIIIIIII
AA11111II11IIIIIIIIIIIIIIIIIIIIIIIIIIIIIIIIIIIIIIIIIIIIIIIIIIIII
AAA11111I111IIIIIIIIIIIIIIIIIIIIIIIIIIIIIIIIIIIIIIIIIIIIIIIIIIII
AAAA111111111IIIIIIIIIIIIIIIIIIIIIIIIIIIIIIIIIIIIIIIIIIIIIIIIIII
AAAAA111111111IIIIIIIIIIIIIIIIIIIIIIIIIIIIIIIIIIIIIIIIIIIIIIIIII
AAAAAA111111111IIIIIIIIIIIIIIIIIIIIIIIIIIIIIIIIIIIIIIIIIIIIIIIII
AAAAAAA111111111IIIIIIIIIIIIIIIIIIIIIIIIIIIIIIIIIIIIIIIIIIIIIIII
AAAAAAAA111111111IIIIIIIIIIIIIIIIIIIIIIIIIIIIIIIIIIIIIIIIIIIIIII
AAAAAAAAA111111111IIIIIIIIIIIIIIIIIIIIIIIIIIIIIIIIIIIIIIIIIIIIII
AAAAAAAAAA111111111IIIIIIIIIIIIIIIIIIIIIIIIIIIIIIIIIIIIIIIIIIIII
AAAAAAAAAAA111111111IIIIIIIIIIIIIIIIIIIIIIIIIIIIIIIIIIIIIIIIIIII
AAAAAAAAAAAA111111111IIIIIIIIIIIIIIIIIIIIIIIIIIIIIIIIIIIIIIIIIII
AAAAAAAAAAAAA111111111IIIIIIIIIIIIIIIIIIIIIIIIIIIIIIIIIIIIIIIIII
AAAAAAAAAAAAAA111111111IIIIIIIIIIIIIIIIIIIIIIIIIIIIIIIIIIIIIIIII
AAAAAAAAAAAAAAA111111111IIIIIIIIIIIIIIIIIIIIIIIIIIIIIIIIIIIIIIII
AAAAAAAAAAAAAAAA111111111IIIIIIIIIIIIIIIIIIIIIIIIIIIIIIIIIIIIIII
AAAAAAAAAAAAAAAAA111111111IIIIIIIIIIIIIIIIIIIIIIIIIIIIIIIIIIIIII
AAAAAAAAAAAAAAAAAA111111111IIIIIIIIIIIIIIIIIIIIIIIIIIIIIIIIIIIII
AAAAAAAAAAAAAAAAAAA111111111IIIIIIIIIIIIIIIIIIIIIIIIIIIIIIIIIIII
AAAAAAAAAAAAAAAAAAAA111111111IIIIIIIIIIIIIIIIIIIIIIIIIIIIIIIIIII
AAAAAAAAAAAAAAAAAAAAA111111111IIIIIIIIIIIIIIIIIIIIIIIIIIIIIIIIII
AAAAAAAAAAAAAAAAAAAAAA111111111IIIIIIIIIIIIIIIIIIIIIIIIIIIIIIIII
AAAAAAAAAAAAAAAAAAAAAAA111111111IIIIIIIIIIIIIIIIIIIIIIIIIIIIIIII
AAAAAAAAAAAAAAAAAAAAAAAA111111111IIIIIIIIIIIIIIIIIIIIIIIIIIIIIII
AAAAAAAAAAAAAAAAAAAAAAAAA111111111IIIIIIIIIIIIIIIIIIIIIIIIIIIIII
AAAAAAAAAAAAAAAAAAAAAAAAAA111111111IIIIIIIIIIIIIIIIIIIIIIIIIIIII
AAAAAAAAAAAAAAAAAAAAAAAAAAA111111111IIIIIIIIIIIIIIIIIIIIIIIIIIII
AAAAAAAAAAAAAAAAAAAAAAAAAAAA111111111IIIIIIIIIIIIIIIIIIIIIIIIIII
AAAAAAAAAAAAAAAAAAAAAAAAAAAAA111111111IIIIIIIIIIIIIIIIIIIIIIIIII
AAAAAAAAAAAAAAAAAAAAAAAAAAAAAA111111111IIIIIIIIIIIIIIIIIIIIIIIII
AAAAAAAAAAAAAAAAAAAAAAAAAAAAAAA111111111IIIIIIIIIIIIIIIIIIIIIIII
AAAAAAAAAAAAAAAAAAAAAAAAAAAAAAAA111111111IIIIIIIIIIIIIIIIIIIIIII
AAAAAAAAAAAAAAAAAAAAAAAAAAAAAAAAA111111111IIIIIIIIIIIIIIIIIIIIII
AAAAAAAAAAAAAAAAAAAAAAAAAAAAAAAAAA111111111IIIIIIIIIIIIIIIIIIIII
AAAAAAAAAAAAAAAAAAAAAAAAAAAAAAAAAAA111111111IIIIIIIIIIIIIIIIIIII
AAAAAAAAAAAAAAAAAAAAAAAAAAAAAAAAAAAA111111111IIIIIIIIIIIIIIIIIII
AAAAAAAAAAAAAAAAAAAAAAAAAAAAAAAAAAAAA111111111IIIIIIIIIIIIIIIIII
AAAAAAAAAAAAAAAAAAAAAAAAAAAAAAAAAAAAAA111111111IIIIIIIIIIIIIIIII
AAAAAAAAAAAAAAAAAAAAAAAAAAAAAAAAAAAAAAA111111111IIIIIIIIIIIIIIII
AAAAAAAAAAAAAAAAAAAAAAAAAAAAAAAAAAAAAAAA111111111IIIIIIIIIIIIIII
AAAAAAAAAAAAAAAAAAAAAAAAAAAAAAAAAAAAAAAAA111111111IIIIIIIIIIIIII
AAAAAAAAAAAAAAAAAAAAAAAAAAAAAAAAAAAAAAAAAA111111111IIIIIIIIIIIII
AAAAAAAAAAAAAAAAAAAAAAAAAAAAAAAAAAAAAAAAAAA111111111IIIIIIIIIIII
AAAAAAAAAAAAAAAAAAAAAAAAAAAAAAAAAAAAAAAAAAAA111111111IIIIIIIIIII
AAAAAAAAAAAAAAAAAAAAAAAAAAAAAAAAAAAAAAAAAAAAA111111111IIIIIIIIII
AAAAAAAAAAAAAAAAAAAAAAAAAAAAAAAAAAAAAAAAAAAAAA111111111IIIIIIIII
AAAAAAAAAAAAAAAAAAAAAAAAAAAAAAAAAAAAAAAAAAAAAAA111111111IIIIIIII
AAAAAAAAAAAAAAAAAAAAAAAAAAAAAAAAAAAAAAAAAAAAAAAA111111111IIIIIII
AAAAAAAAAAAAAAAAAAAAAAAAAAAAAAAAAAAAAAAAAAAAAAAAA111111111IIIIII
AAAAAAAAAAAAAAAAAAAAAAAAAAAAAAAAAAAAAAAAAAAAAAAAAA111111111IIIII
AAAAAAAAAAAAAAAAAAAAAAAAAAAAAAAAAAAAAAAAAAAAAAAAAAA111111111IIII
AAAAAAAAAAAAAAAAAAAAAAAAAAAAAAAAAAAAAAAAAAAAAAAAAAAA111111111III
AAAAAAAAAAAAAAAAAAAAAAAAAAAAAAAAAAAAAAAAAAAAAAAAAAAAA111111111II
AAAAAAAAAAAAAAAAAAAAAAAAAAAAAAAAAAAAAAAAAAAAAAAAAAAAAA111111111I
AAAAAAAAAAAAAAAAAAAAAAAAAAAAAAAAAAAAAAAAAAAAAAAAAAAAAAA111111111
AAAAAAAAAAAAAAAAAAAAAAAAAAAAAAAAAAAAAAAAAAAAAAAAAAAAAAAA11111111
AAAAAAAAAAAAAAAAAAAAAAAAAAAAAAAAAAAAAAAAAAAAAAAAAAAAAAAAA1111111
AAAAAAAAAAAAAAAAAAAAAAAAAAAAAAAAAAAAAAAAAAAAAAAAAAAAAAAAAA111111
AAAAAAAAAAAAAAAAAAAAAAAAAAAAAAAAAAAAAAAAAAAAAAAAAAAAAAAAAAA11111
AAAAAAAAAAAAAAAAAAAAAAAAAAAAAAAAAAAAAAAAAAAAAAAAAAAAAAAAAAAA1111
AAAAAAAAAAAAAAAAAAAAAAAAAAAAAAAAAAAAAAAAAAAAAAAAAAAAAAAAAAAAA111
AAAAAAAAAAAAAAAAAAAAAAAAAAAAAAAAAAAAAAAAAAAAAAAAAAAAAAAAAAAAAA11
AAAAAAAAAAAAAAAAAAAAAAAAAAAAAAAAAAAAAAAAAAAAAAAAAAAAAAAAAAAAAAA1
AAAAAAAAAAAAAAAAAAAAAAAAAAAAAAAAAAAAAAAAAAAAAAAAAAAAAAAAAAAAAAAA
IIIIAIII11III2IIIIIIIIIII1IIIIIIIIIIIIIIIIIIIIIIIIIIIIIIIIIIIIII
IIIIAIII11AII211III2IIIII1IIIII1IIIIIIIIIIIIIIIIIIIIIIIIIIIIIIII
IIIIAIII11AII21AIII11III21IIIII1IIII1IIIIIIIIIIIIIIIIIIIIIIIIIII
IIIIAIII11AII21AIII1AIII11III2I1IIII1IIII1IIIIIIIIIIIIIIIIIIIIII
IIIIAIII11AII21AIII1AIII1AIII111II2I1IIII1IIII1IIIIIIIIIIIIIIIII
IIIIAIII11AII21AIII1AIII1AIII11AII211III21IIII1IIIII1IIIIIIIIIII
IIIIAIII11AII21AIII1AIII1AIII11AII21AIII11III21IIIII1IIII1IIIIII
IIIIAIII11AII21AIII1AIII1AIII11AII21AIII1AIII11III2I1IIII1IIII1I
IIIIAIII11AII21AIII1AIII1AIII11AII21AIII1AIII1AIII111II2I1IIII1I
IIIIAIII11AII21AIII1AIII1AIII11AII21AIII1AIII1AIII11AII211III21I
IIIIAIII11AII21AIII1AIII1AIII11AII21AIII1AIII1AIII11AII21AIII11I
IIIIAIII11AII21AIII1AIII1AIII11AII21AIII1AIII1AIII11AII21AIII1AI
III1AIII11AII21AIII1AIII1AIII11AII21AIII1AIII1AIII11AII21AIII1AI
III1AIII1AAII21AIII1AIII1AIII11AII21AIII1AIII1AIII11AII21AIII1AI
III1AIII1AAII1AAIII1AIII1AIII11AII21AIII1AIII1AIII11AII21AIII1AI
III1AIII1AAII1AAII1AAIII1AIII11AII21AIII1AIII1AIII11AII21AIII1AI
III1AIII1AAII1AAII1AAIII1AIII1AAII21AIII1AIII1AIII11AII21AIII1AI
III1AIII1AAII1AAII1AAIII1AIII1AAII1AAIII1AIII1AIII11AII21AIII1AI
III1AIII1AAII1AAII1AAIII1AIII1AAII1AAII1AAIII1AIII11AII21AIII1AI
III1AIII1AAII1AAII1AAIII1AIII1AAII1AAII1AAIII1AIII1AAII21AIII1AI
III1AIII1AAII1AAII1AAIII1AIII1AAII1AAII1AAIII1AIII1AAII1AAIII1AI
III1AIII1AAII1AAII1AAIII1AIII1AAII1AAII1AAIII1AIII1AAII1AAII1AAI
A1IIIIIIIIIIIIIIIIIIIIIIIIIIIIIIIIIIIIIIIIIIIIIIIIIIIIIIIIIIIIII
A1IIIIIII111II1IIIIIIIIIIIIIIIIIIIIIIIIIIIIIIIIIIIIIIIIIIIIIIIII
A1IIIIIII111II111IIIIIIIIIIIIIIIIIIIIIIIIIIIIIIIIIIIIIIIIIIIIIII
AA1IIIIII1111I1111IIIIIIIIIIIIIIIIIIIIIIIIIIIIIIIIIIIIIIIIIIIIII
AAA1IIIII1111111111IIIIIIIIIIIIIIIIIIIIIIIIIIIIIIIIIIIIIIIIIIIII
AAAA1IIII11111111111IIIIIIIIIIIIIIIIIIIIIIIIIIIIIIIIIIIIIIIIIIII
AAAAA1III111111111111IIIIIIIIIIIIIIIIIIIIIIIIIIIIIIIIIIIIIIIIIII
AAAAAA1II1111111111111IIIIIIIIIIIIIIIIIIIIIIIIIIIIIIIIIIIIIIIIII
AAAAAAA1I11111111111111IIIIIIIIIIIIIIIIIIIIIIIIIIIIIIIIIIIIIIIII
AAAAAAAA1111111111111111IIIIIIIIIIIIIIIIIIIIIIIIIIIIIIIIIIIIIIII
AAAAAAAAA1111111111111111IIIIIIIIIIIIIIIIIIIIIIIIIIIIIIIIIIIIIII
AAAAAAAAAA1111111111111111IIIIIIIIIIIIIIIIIIIIIIIIIIIIIIIIIIIIII
AAAAAAAAAAA1111111111111111IIIIIIIIIIIIIIIIIIIIIIIIIIIIIIIIIIIII
AAAAAAAAAAAA1111111111111111IIIIIIIIIIIIIIIIIIIIIIIIIIIIIIIIIIII
AAAAAAAAAAAAA1111111111111111IIIIIIIIIIIIIIIIIIIIIIIIIIIIIIIIIII
AAAAAAAAAAAAAA1111111111111111IIIIIIIIIIIIIIIIIIIIIIIIIIIIIIIIII
AAAAAAAAAAAAAAA1111111111111111IIIIIIIIIIIIIIIIIIIIIIIIIIIIIIIII
AAAAAAAAAAAAAAAA1111111111111111IIIIIIIIIIIIIIIIIIIIIIIIIIIIIIII
AAAAAAAAAAAAAAAAA1111111111111111IIIIIIIIIIIIIIIIIIIIIIIIIIIIIII
AAAAAAAAAAAAAAAAAA1111111111111111IIIIIIIIIIIIIIIIIIIIIIIIIIIIII
AAAAAAAAAAAAAAAAAAA1111111111111111IIIIIIIIIIIIIIIIIIIIIIIIIIIII
AAAAAAAAAAAAAAAAAAAA1111111111111111IIIIIIIIIIIIIIIIIIIIIIIIIIII
AAAAAAAAAAAAAAAAAAAAA1111111111111111IIIIIIIIIIIIIIIIIIIIIIIIIII
AAAAAAAAAAAAAAAAAAAAAA1111111111111111IIIIIIIIIIIIIIIIIIIIIIIIII
AAAAAAAAAAAAAAAAAAAAAAA1111111111111111IIIIIIIIIIIIIIIIIIIIIIIII
AAAAAAAAAAAAAAAAAAAAAAAA1111111111111111IIIIIIIIIIIIIIIIIIIIIIII
AAAAAAAAAAAAAAAAAAAAAAAAA1111111111111111IIIIIIIIIIIIIIIIIIIIIII
AAAAAAAAAAAAAAAAAAAAAAAAAA1111111111111111IIIIIIIIIIIIIIIIIIIIII
AAAAAAAAAAAAAAAAAAAAAAAAAAA1111111111111111IIIIIIIIIIIIIIIIIIIII
AAAAAAAAAAAAAAAAAAAAAAAAAAAA1111111111111111IIIIIIIIIIIIIIIIIIII
AAAAAAAAAAAAAAAAAAAAAAAAAAAAA1111111111111111IIIIIIIIIIIIIIIIIII
AAAAAAAAAAAAAAAAAAAAAAAAAAAAAA1111111111111111IIIIIIIIIIIIIIIIII
AAAAAAAAAAAAAAAAAAAAAAAAAAAAAAA1111111111111111IIIIIIIIIIIIIIIII
AAAAAAAAAAAAAAAAAAAAAAAAAAAAAAAA1111111111111111IIIIIIIIIIIIIIII
AAAAAAAAAAAAAAAAAAAAAAAAAAAAAAAAA1111111111111111IIIIIIIIIIIIIII
AAAAAAAAAAAAAAAAAAAAAAAAAAAAAAAAAA1111111111111111IIIIIIIIIIIIII
AAAAAAAAAAAAAAAAAAAAAAAAAAAAAAAAAAA1111111111111111IIIIIIIIIIIII
AAAAAAAAAAAAAAAAAAAAAAAAAAAAAAAAAAAA1111111111111111IIIIIIIIIIII
AAAAAAAAAAAAAAAAAAAAAAAAAAAAAAAAAAAAA1111111111111111IIIIIIIIIII
AAAAAAAAAAAAAAAAAAAAAAAAAAAAAAAAAAAAAA1111111111111111IIIIIIIIII
AAAAAAAAAAAAAAAAAAAAAAAAAAAAAAAAAAAAAAA1111111111111111IIIIIIIII
AAAAAAAAAAAAAAAAAAAAAAAAAAAAAAAAAAAAAAAA1111111111111111IIIIIIII
AAAAAAAAAAAAAAAAAAAAAAAAAAAAAAAAAAAAAAAAA1111111111111111IIIIIII
AAAAAAAAAAAAAAAAAAAAAAAAAAAAAAAAAAAAAAAAAA1111111111111111IIIIII
AAAAAAAAAAAAAAAAAAAAAAAAAAAAAAAAAAAAAAAAAAA1111111111111111IIIII
AAAAAAAAAAAAAAAAAAAAAAAAAAAAAAAAAAAAAAAAAAAA1111111111111111IIII
AAAAAAAAAAAAAAAAAAAAAAAAAAAAAAAAAAAAAAAAAAAAA1111111111111111III
AAAAAAAAAAAAAAAAAAAAAAAAAAAAAAAAAAAAAAAAAAAAAA1111111111111111II
AAAAAAAAAAAAAAAAAAAAAAAAAAAAAAAAAAAAAAAAAAAAAAA1111111111111111I
AAAAAAAAAAAAAAAAAAAAAAAAAAAAAAAAAAAAAAAAAAAAAAAA1111111111111111
AAAAAAAAAAAAAAAAAAAAAAAAAAAAAAAAAAAAAAAAAAAAAAAAA111111111111111
AAAAAAAAAAAAAAAAAAAAAAAAAAAAAAAAAAAAAAAAAAAAAAAAAA11111111111111
AAAAAAAAAAAAAAAAAAAAAAAAAAAAAAAAAAAAAAAAAAAAAAAAAAA1111111111111
AAAAAAAAAAAAAAAAAAAAAAAAAAAAAAAAAAAAAAAAAAAAAAAAAAAA111111111111
AAAAAAAAAAAAAAAAAAAAAAAAAAAAAAAAAAAAAAAAAAAAAAAAAAAAA11111111111
AAAAAAAAAAAAAAAAAAAAAAAAAAAAAAAAAAAAAAAAAAAAAAAAAAAAAA1111111111
AAAAAAAAAAAAAAAAAAAAAAAAAAAAAAAAAAAAAAAAAAAAAAAAAAAAAAA111111111
AAAAAAAAAAAAAAAAAAAAAAAAAAAAAAAAAAAAAAAAAAAAAAAAAAAAAAAA11111111
AAAAAAAAAAAAAAAAAAAAAAAAAAAAAAAAAAAAAAAAAAAAAAAAAAAAAAAAA1111111
AAAAAAAAAAAAAAAAAAAAAAAAAAAAAAAAAAAAAAAAAAAAAAAAAAAAAAAAAA111111
AAAAAAAAAAAAAAAAAAAAAAAAAAAAAAAAAAAAAAAAAAAAAAAAAAAAAAAAAAA11111
AAAAAAAAAAAAAAAAAAAAAAAAAAAAAAAAAAAAAAAAAAAAAAAAAAAAAAAAAAAA1111
AAAAAAAAAAAAAAAAAAAAAAAAAAAAAAAAAAAAAAAAAAAAAAAAAAAAAAAAAAAAA111
AAAAAAAAAAAAAAAAAAAAAAAAAAAAAAAAAAAAAAAAAAAAAAAAAAAAAAAAAAAAAA11
AAAAAAAAAAAAAAAAAAAAAAAAAAAAAAAAAAAAAAAAAAAAAAAAAAAAAAAAAAAAAAA1
AAAAAAAAAAAAAAAAAAAAAAAAAAAAAAAAAAAAAAAAAAAAAAAAAAAAAAAAAAAAAAAA
AIIIIIIIIIIIIIIIIIIIIIIIIIIIIIIIIIIIIIIIIIIIIIIIIIIIIIIIIIIIIIII
A111IIIIIIIIIIIIIIIIIIIIIIIIIIIIIIIIIIIIIIIIIIIIIIIIIIIIIIIIIIII
A111IIIIIIIIIIIIII1IIIIIIIIIIIIIIIIIIIIIIIIIIIIIIIIIIIIIIIIIIIII
AA111IIIIIIIIIIIII11IIIIIIIIIIIIIIIIIIIIIIIIIIIIIIIIIIIIIIIIIIII
AAA11IIIIIIIIIIIII11IIIIIIIIIIIIIIIIIIIIIIIIIIIIIIIIIIIIIIIIIIII
AAA111IIIIIIIIIIII111IIIIIIIIIIIIIIIIIIIIIIIIIIIIIIIIIIIIIIIIIII
AAAA111IIIIIIIIIII1111IIIIIIIIIIIIIIIIIIIIIIIIIIIIIIIIIIIIIIIIII
AAAAA111IIIIIIIIII11111IIIIIIIIIIIIIIIIIIIIIIIIIIIIIIIIIIIIIIIII
AAAAAA111IIIIIIIII111111IIIIIIIIIIIIIIIIIIIIIIIIIIIIIIIIIIIIIIII
AAAAAAA111IIIIIIII1111111IIIIIIIIIIIIIIIIIIIIIIIIIIIIIIIIIIIIIII
AAAAAAAA111IIIIIII11111111IIIIIIIIIIIIIIIIIIIIIIIIIIIIIIIIIIIIII
AAAAAAAAA111IIIIII111111111IIIIIIIIIIIIIIIIIIIIIIIIIIIIIIIIIIIII
AAAAAAAAAA111IIIII1111111111IIIIIIIIIIIIIIIIIIIIIIIIIIIIIIIIIIII
AAAAAAAAAAA111IIII11111111111IIIIIIIIIIIIIIIIIIIIIIIIIIIIIIIIIII
AAAAAAAAAAAA111III111111111111IIIIIIIIIIIIIIIIIIIIIIIIIIIIIIIIII
AAAAAAAAAAAAA111II1111111111111IIIIIIIIIIIIIIIIIIIIIIIIIIIIIIIII
AAAAAAAAAAAAAA111I11111111111111IIIIIIIIIIIIIIIIIIIIIIIIIIIIIIII
AAAAAAAAAAAAAAA111111111111111111IIIIIIIIIIIIIIIIIIIIIIIIIIIIIII
AAAAAAAAAAAAAAAA111111111111111111IIIIIIIIIIIIIIIIIIIIIIIIIIIIII
AAAAAAAAAAAAAAAAA111111111111111111IIIIIIIIIIIIIIIIIIIIIIIIIIIII
AAAAAAAAAAAAAAAAAA111111111111111111IIIIIIIIIIIIIIIIIIIIIIIIIIII
AAAAAAAAAAAAAAAAAAA111111111111111111IIIIIIIIIIIIIIIIIIIIIIIIIII
AAAAAAAAAAAAAAAAAAAA111111111111111111IIIIIIIIIIIIIIIIIIIIIIIIII
AAAAAAAAAAAAAAAAAAAAA111111111111111111IIIIIIIIIIIIIIIIIIIIIIIII
AAAAAAAAAAAAAAAAAAAAAA111111111111111111IIIIIIIIIIIIIIIIIIIIIIII
AAAAAAAAAAAAAAAAAAAAAAA111111111111111111IIIIIIIIIIIIIIIIIIIIIII
AAAAAAAAAAAAAAAAAAAAAAAA111111111111111111IIIIIIIIIIIIIIIIIIIIII
AAAAAAAAAAAAAAAAAAAAAAAAA111111111111111111IIIIIIIIIIIIIIIIIIIII
AAAAAAAAAAAAAAAAAAAAAAAAAA111111111111111111IIIIIIIIIIIIIIIIIIII
AAAAAAAAAAAAAAAAAAAAAAAAAAA111111111111111111IIIIIIIIIIIIIIIIIII
AAAAAAAAAAAAAAAAAAAAAAAAAAAA111111111111111111IIIIIIIIIIIIIIIIII
AAAAAAAAAAAAAAAAAAAAAAAAAAAAA111111111111111111IIIIIIIIIIIIIIIII
AAAAAAAAAAAAAAAAAAAAAAAAAAAAAA111111111111111111IIIIIIIIIIIIIIII
AAAAAAAAAAAAAAAAAAAAAAAAAAAAAAA111111111111111111IIIIIIIIIIIIIII
AAAAAAAAAAAAAAAAAAAAAAAAAAAAAAAA111111111111111111IIIIIIIIIIIIII
AAAAAAAAAAAAAAAAAAAAAAAAAAAAAAAAA111111111111111111IIIIIIIIIIIII
AAAAAAAAAAAAAAAAAAAAAAAAAAAAAAAAAA111111111111111111IIIIIIIIIIII
AAAAAAAAAAAAAAAAAAAAAAAAAAAAAAAAAAA111111111111111111IIIIIIIIIII
AAAAAAAAAAAAAAAAAAAAAAAAAAAAAAAAAAAA111111111111111111IIIIIIIIII
AAAAAAAAAAAAAAAAAAAAAAAAAAAAAAAAAAAAA111111111111111111IIIIIIIII
AAAAAAAAAAAAAAAAAAAAAAAAAAAAAAAAAAAAAA111111111111111111IIIIIIII
AAAAAAAAAAAAAAAAAAAAAAAAAAAAAAAAAAAAAAA111111111111111111IIIIIII
AAAAAAAAAAAAAAAAAAAAAAAAAAAAAAAAAAAAAAAA111111111111111111IIIIII
AAAAAAAAAAAAAAAAAAAAAAAAAAAAAAAAAAAAAAAAA111111111111111111IIIII
AAAAAAAAAAAAAAAAAAAAAAAAAAAAAAAAAAAAAAAAAA111111111111111111IIII
AAAAAAAAAAAAAAAAAAAAAAAAAAAAAAAAAAAAAAAAAAA111111111111111111III
AAAAAAAAAAAAAAAAAAAAAAAAAAAAAAAAAAAAAAAAAAAA111111111111111111II
AAAAAAAAAAAAAAAAAAAAAAAAAAAAAAAAAAAAAAAAAAAAA111111111111111111I
AAAAAAAAAAAAAAAAAAAAAAAAAAAAAAAAAAAAAAAAAAAAAA111111111111111111
AAAAAAAAAAAAAAAAAAAAAAAAAAAAAAAAAAAAAAAAAAAAAAA11111111111111111
AAAAAAAAAAAAAAAAAAAAAAAAAAAAAAAAAAAAAAAAAAAAAAAA1111111111111111
AAAAAAAAAAAAAAAAAAAAAAAAAAAAAAAAAAAAAAAAAAAAAAAAA111111111111111
AAAAAAAAAAAAAAAAAAAAAAAAAAAAAAAAAAAAAAAAAAAAAAAAAA11111111111111
AAAAAAAAAAAAAAAAAAAAAAAAAAAAAAAAAAAAAAAAAAAAAAAAAAA1111111111111
AAAAAAAAAAAAAAAAAAAAAAAAAAAAAAAAAAAAAAAAAAAAAAAAAAAA111111111111
AAAAAAAAAAAAAAAAAAAAAAAAAAAAAAAAAAAAAAAAAAAAAAAAAAAAA11111111111
AAAAAAAAAAAAAAAAAAAAAAAAAAAAAAAAAAAAAAAAAAAAAAAAAAAAAA1111111111
AAAAAAAAAAAAAAAAAAAAAAAAAAAAAAAAAAAAAAAAAAAAAAAAAAAAAAA111111111
AAAAAAAAAAAAAAAAAAAAAAAAAAAAAAAAAAAAAAAAAAAAAAAAAAAAAAAA11111111
AAAAAAAAAAAAAAAAAAAAAAAAAAAAAAAAAAAAAAAAAAAAAAAAAAAAAAAAA1111111
AAAAAAAAAAAAAAAAAAAAAAAAAAAAAAAAAAAAAAAAAAAAAAAAAAAAAAAAAA111111
AAAAAAAAAAAAAAAAAAAAAAAAAAAAAAAAAAAAAAAAAAAAAAAAAAAAAAAAAAA11111
AAAAAAAAAAAAAAAAAAAAAAAAAAAAAAAAAAAAAAAAAAAAAAAAAAAAAAAAAAAA1111
AAAAAAAAAAAAAAAAAAAAAAAAAAAAAAAAAAAAAAAAAAAAAAAAAAAAAAAAAAAAA111
AAAAAAAAAAAAAAAAAAAAAAAAAAAAAAAAAAAAAAAAAAAAAAAAAAAAAAAAAAAAAA11
AAAAAAAAAAAAAAAAAAAAAAAAAAAAAAAAAAAAAAAAAAAAAAAAAAAAAAAAAAAAAAA1
AAAAAAAAAAAAAAAAAAAAAAAAAAAAAAAAAAAAAAAAAAAAAAAAAAAAAAAAAAAAAAAA
IIIIAIIIIIIIIIIIIIIIIIIII1IIIIIIIIIIIIIIIIIIII2IIIIIIIIIIIIIIIII
IIIIAIIIIIAIIIIIIIIIIIIII1IIIII1IIIIIIIIIIIIII2IIIII2IIIIIIIIIII
IIIIAIIIIIAIIIIAIIIIIIIII1IIIII1IIII1IIIIIIIII2IIIII2IIII2IIIIII
IIIIAIIIIIAIIIIAIIIIAIIII1IIIII1IIII1IIII1IIII2IIIII2IIII2IIII2I
IIIIAIIIIIAIIIIAIIIIAIIIIAIIIII1IIII1IIII1IIII1IIIII2IIII2IIII2I
IIIIAIIIIIAIIIIAIIIIAIIIIAIIIIIAIIII1IIII1IIII1IIIII1IIII2IIII2I
IIIIAIIIIIAIIIIAIIIIAIIIIAIIIIIAIIII1IIIIAIIII1IIIII1IIII2IIII1I
IIIIAIIIIIAIIIIAIIIIAIIIIAIIIIIAIIIIAIIIIAIIII1IIIII1IIII1IIII1I
IIIIAIIIIIAIIIIAIIIIAIIIIAIIIIIAIIIIAIIIIAIIII1IIIIIAIIII1IIII1I
IIIIAIIIIIAIIIIAIIIIAIIIIAIIIIIAIIIIAIIIIAIIIIAIIIIIAIIII1IIII1I
IIIIAIIIIIAIIIIAIIIIAIIIIAIIIIIAIIIIAIIIIAIIIIAIIIIIAIIIIAIIII1I
IIIIAIIIIIAIIIIAIIIIAIIIIAIIIIIAIIIIAIIIIAIIIIAIIIIIAIIIIAIIIIAI
III1AIIIIIAIIIIAIIIIAIII1AIIIIIAIIIIAIIIIAIIIIAIIIIIAIIIIAIIIIAI
III1AIII1AAIIIIAIIIIAIII1AIII1IAIIIIAIIIIAIIIIAIIIIIAIIIIAIIIIAI
III1AIII1AAII1AAIIIIAIII1AIII1IAII1IAIIIIAIIIIAIIIIIAIIIIAIIIIAI
III1AIII1AAII1AAII1AAIII1AIII1IAII1IAII1IAIIIIAIIIIIAIIIIAIIIIAI
III1AIII1AAII1AAII1AAIII1AIII1IAII1IAII1IAIII1AIIIIIAIIIIAIIIIAI
III1AIII1AAII1AAII1AAIII1AIII1AAII1IAII1IAIII1AIII1IAIIIIAIIIIAI
III1AIII1AAII1AAII1AAIII1AIII1AAII1AAII1IAIII1AIII1IAII1IAIIIIAI
III1AIII1AAII1AAII1AAIII1AIII1AAII1AAII1AAIII1AIII1IAII1IAII1IAI
III1AIII1AAII1AAII1AAIII1AIII1AAII1AAII1AAIII1AIII1AAII1IAII1IAI
III1AIII1AAII1AAII1AAIII1AIII1AAII1AAII1AAIII1AIII1AAII1IAII1AAI
III1AIII1AAII1AAII1AAIII1AIII1AAII1AAII1AAIII1AIII1AAII1AAII1AAI
AIIIIIIIIIIIIIIIIIIIIIIIIIIIIIIIIIIIIIIIIIIIIIIIIIIIIIIIIIIIIIII
A11111IIIIIIIIIIIII1IIIIIIIIIIIIIIIIIIIIIIIIIIIIIIIIIIIIIIIIIIII
AA11111IIIIIIIIIIII1IIIIIIIIIIIIIIIIIIIIIIIIIIIIIIIIIIIIIIIIIIII
AA11111IIIIIIIIIIII11IIIIIIIIIIIIIIIIIIIIIIIIIIIIIIIIIIIIIIIIIII
AAA11111IIIIIIIIIII111IIIIIIIIIIIIIIIIIIIIIIIIIIIIIIIIIIIIIIIIII
AAAA11111IIIIIIIIII1111IIIIIIIIIIIIIIIIIIIIIIIIIIIIIIIIIIIIIIIII
AAAAA11111IIIIIIIII11111IIIIIIIIIIIIIIIIIIIIIIIIIIIIIIIIIIIIIIII
AAAAAA11111IIIIIIII111111IIIIIIIIIIIIIIIIIIIIIIIIIIIIIIIIIIIIIII
AAAAAAA11111IIIIIII1111111IIIIIIIIIIIIIIIIIIIIIIIIIIIIIIIIIIIIII
AAAAAAAA11111IIIIII11111111IIIIIIIIIIIIIIIIIIIIIIIIIIIIIIIIIIIII
AAAAAAAAA11111IIIII111111111IIIIIIIIIIIIIIIIIIIIIIIIIIIIIIIIIIII
AAAAAAAAAA11111IIII1111111111IIIIIIIIIIIIIIIIIIIIIIIIIIIIIIIIIII
AAAAAAAAAAA11111III11111111111IIIIIIIIIIIIIIIIIIIIIIIIIIIIIIIIII
AAAAAAAAAAAA11111II111111111111IIIIIIIIIIIIIIIIIIIIIIIIIIIIIIIII
AAAAAAAAAAAAA11111I1111111111111IIIIIIIIIIIIIIIIIIIIIIIIIIIIIIII
AAAAAAAAAAAAAA1111111111111111111IIIIIIIIIIIIIIIIIIIIIIIIIIIIIII
AAAAAAAAAAAAAAA1111111111111111111IIIIIIIIIIIIIIIIIIIIIIIIIIIIII
AAAAAAAAAAAAAAAA1111111111111111111IIIIIIIIIIIIIIIIIIIIIIIIIIIII
AAAAAAAAAAAAAAAAA1111111111111111111IIIIIIIIIIIIIIIIIIIIIIIIIIII
AAAAAAAAAAAAAAAAAA1111111111111111111IIIIIIIIIIIIIIIIIIIIIIIIIII
AAAAAAAAAAAAAAAAAAA1111111111111111111IIIIIIIIIIIIIIIIIIIIIIIIII
AAAAAAAAAAAAAAAAAAAA1111111111111111111IIIIIIIIIIIIIIIIIIIIIIIII
AAAAAAAAAAAAAAAAAAAAA1111111111111111111IIIIIIIIIIIIIIIIIIIIIIII
AAAAAAAAAAAAAAAAAAAAAA1111111111111111111IIIIIIIIIIIIIIIIIIIIIII
AAAAAAAAAAAAAAAAAAAAAAA1111111111111111111IIIIIIIIIIIIIIIIIIIIII
AAAAAAAAAAAAAAAAAAAAAAAA1111111111111111111IIIIIIIIIIIIIIIIIIIII
AAAAAAAAAAAAAAAAAAAAAAAAA1111111111111111111IIIIIIIIIIIIIIIIIIII
AAAAAAAAAAAAAAAAAAAAAAAAAA1111111111111111111IIIIIIIIIIIIIIIIIII
AAAAAAAAAAAAAAAAAAAAAAAAAAA1111111111111111111IIIIIIIIIIIIIIIIII
AAAAAAAAAAAAAAAAAAAAAAAAAAAA1111111111111111111IIIIIIIIIIIIIIIII
AAAAAAAAAAAAAAAAAAAAAAAAAAAAA1111111111111111111IIIIIIIIIIIIIIII
AAAAAAAAAAAAAAAAAAAAAAAAAAAAAA1111111111111111111IIIIIIIIIIIIIII
AAAAAAAAAAAAAAAAAAAAAAAAAAAAAAA1111111111111111111IIIIIIIIIIIIII
AAAAAAAAAAAAAAAAAAAAAAAAAAAAAAAA1111111111111111111IIIIIIIIIIIII
AAAAAAAAAAAAAAAAAAAAAAAAAAAAAAAAA1111111111111111111IIIIIIIIIIII
AAAAAAAAAAAAAAAAAAAAAAAAAAAAAAAAAA1111111111111111111IIIIIIIIIII
AAAAAAAAAAAAAAAAAAAAAAAAAAAAAAAAAAA1111111111111111111IIIIIIIIII
AAAAAAAAAAAAAAAAAAAAAAAAAAAAAAAAAAAA1111111111111111111IIIIIIIII
AAAAAAAAAAAAAAAAAAAAAAAAAAAAAAAAAAAAA1111111111111111111IIIIIIII
AAAAAAAAAAAAAAAAAAAAAAAAAAAAAAAAAAAAAA1111111111111111111IIIIIII
AAAAAAAAAAAAAAAAAAAAAAAAAAAAAAAAAAAAAAA1111111111111111111IIIIII
AAAAAAAAAAAAAAAAAAAAAAAAAAAAAAAAAAAAAAAA1111111111111111111IIIII
AAAAAAAAAAAAAAAAAAAAAAAAAAAAAAAAAAAAAAAAA1111111111111111111IIII
AAAAAAAAAAAAAAAAAAAAAAAAAAAAAAAAAAAAAAAAAA1111111111111111111III
AAAAAAAAAAAAAAAAAAAAAAAAAAAAAAAAAAAAAAAAAAA1111111111111111111II
AAAAAAAAAAAAAAAAAAAAAAAAAAAAAAAAAAAAAAAAAAAA1111111111111111111I
AAAAAAAAAAAAAAAAAAAAAAAAAAAAAAAAAAAAAAAAAAAAA1111111111111111111
AAAAAAAAAAAAAAAAAAAAAAAAAAAAAAAAAAAAAAAAAAAAAA111111111111111111
AAAAAAAAAAAAAAAAAAAAAAAAAAAAAAAAAAAAAAAAAAAAAAA11111111111111111
AAAAAAAAAAAAAAAAAAAAAAAAAAAAAAAAAAAAAAAAAAAAAAAA1111111111111111
AAAAAAAAAAAAAAAAAAAAAAAAAAAAAAAAAAAAAAAAAAAAAAAAA111111111111111
AAAAAAAAAAAAAAAAAAAAAAAAAAAAAAAAAAAAAAAAAAAAAAAAAA11111111111111
AAAAAAAAAAAAAAAAAAAAAAAAAAAAAAAAAAAAAAAAAAAAAAAAAAA1111111111111
AAAAAAAAAAAAAAAAAAAAAAAAAAAAAAAAAAAAAAAAAAAAAAAAAAAA111111111111
AAAAAAAAAAAAAAAAAAAAAAAAAAAAAAAAAAAAAAAAAAAAAAAAAAAAA11111111111
AAAAAAAAAAAAAAAAAAAAAAAAAAAAAAAAAAAAAAAAAAAAAAAAAAAAAA1111111111
AAAAAAAAAAAAAAAAAAAAAAAAAAAAAAAAAAAAAAAAAAAAAAAAAAAAAAA111111111
AAAAAAAAAAAAAAAAAAAAAAAAAAAAAAAAAAAAAAAAAAAAAAAAAAAAAAAA11111111
AAAAAAAAAAAAAAAAAAAAAAAAAAAAAAAAAAAAAAAAAAAAAAAAAAAAAAAAA1111111
AAAAAAAAAAAAAAAAAAAAAAAAAAAAAAAAAAAAAAAAAAAAAAAAAAAAAAAAAA111111
AAAAAAAAAAAAAAAAAAAAAAAAAAAAAAAAAAAAAAAAAAAAAAAAAAAAAAAAAAA11111
AAAAAAAAAAAAAAAAAAAAAAAAAAAAAAAAAAAAAAAAAAAAAAAAAAAAAAAAAAAA1111
AAAAAAAAAAAAAAAAAAAAAAAAAAAAAAAAAAAAAAAAAAAAAAAAAAAAAAAAAAAAA111
AAAAAAAAAAAAAAAAAAAAAAAAAAAAAAAAAAAAAAAAAAAAAAAAAAAAAAAAAAAAAA11
AAAAAAAAAAAAAAAAAAAAAAAAAAAAAAAAAAAAAAAAAAAAAAAAAAAAAAAAAAAAAAA1
AAAAAAAAAAAAAAAAAAAAAAAAAAAAAAAAAAAAAAAAAAAAAAAAAAAAAAAAAAAAAAAA
AIIIIIIIIIIIIIIIIIIIIIIIIIIIIIIIIIIIIIIIIIIIIIIIIIIIIIIIIIIIIIII
A1111IIIIIIIIIIIIIIIIIIIIIIIIIIIIIIIIIIIIIIIIIIIIIIIIIIIIIIIIIII
A11111IIIIIIIIIIII1IIIIIIIIIIIIIIIIIIIIIIIIIIIIIIIIIIIIIIIIIIIII
AA11111IIIIIIIIIII1IIIIIIIIIIIIIIIIIIIIIIIIIIIIIIIIIIIIIIIIIIIII
AA11111IIIIIIIIIII11IIIIIIIIIIIIIIIIIIIIIIIIIIIIIIIIIIIIIIIIIIII
AAA11111IIIIIIIIII111IIIIIIIIIIIIIIIIIIIIIIIIIIIIIIIIIIIIIIIIIII
AAAA11111IIIIIIIII1111IIIIIIIIIIIIIIIIIIIIIIIIIIIIIIIIIIIIIIIIII
AAAAA11111IIIIIIII11111IIIIIIIIIIIIIIIIIIIIIIIIIIIIIIIIIIIIIIIII
AAAAAA11111IIIIIII111111IIIIIIIIIIIIIIIIIIIIIIIIIIIIIIIIIIIIIIII
AAAAAAA11111IIIIII1111111IIIIIIIIIIIIIIIIIIIIIIIIIIIIIIIIIIIIIII
AAAAAAAA11111IIIII11111111IIIIIIIIIIIIIIIIIIIIIIIIIIIIIIIIIIIIII
AAAAAAAAA11111IIII111111111IIIIIIIIIIIIIIIIIIIIIIIIIIIIIIIIIIIII
AAAAAAAAAA11111III1111111111IIIIIIIIIIIIIIIIIIIIIIIIIIIIIIIIIIII
AAAAAAAAAAA11111II11111111111IIIIIIIIIIIIIIIIIIIIIIIIIIIIIIIIIII
AAAAAAAAAAAA11111I111111111111IIIIIIIIIIIIIIIIIIIIIIIIIIIIIIIIII
AAAAAAAAAAAAA111111111111111111IIIIIIIIIIIIIIIIIIIIIIIIIIIIIIIII
AAAAAAAAAAAAAA111111111111111111IIIIIIIIIIIIIIIIIIIIIIIIIIIIIIII
AAAAAAAAAAAAAAA111111111111111111IIIIIIIIIIIIIIIIIIIIIIIIIIIIIII
AAAAAAAAAAAAAAAA111111111111111111IIIIIIIIIIIIIIIIIIIIIIIIIIIIII
AAAAAAAAAAAAAAAAA111111111111111111IIIIIIIIIIIIIIIIIIIIIIIIIIIII
AAAAAAAAAAAAAAAAAA111111111111111111IIIIIIIIIIIIIIIIIIIIIIIIIIII
AAAAAAAAAAAAAAAAAAA111111111111111111IIIIIIIIIIIIIIIIIIIIIIIIIII
AAAAAAAAAAAAAAAAAAAA111111111111111111IIIIIIIIIIIIIIIIIIIIIIIIII
AAAAAAAAAAAAAAAAAAAAA111111111111111111IIIIIIIIIIIIIIIIIIIIIIIII
AAAAAAAAAAAAAAAAAAAAAA111111111111111111IIIIIIIIIIIIIIIIIIIIIIII
AAAAAAAAAAAAAAAAAAAAAAA111111111111111111IIIIIIIIIIIIIIIIIIIIIII
AAAAAAAAAAAAAAAAAAAAAAAA111111111111111111IIIIIIIIIIIIIIIIIIIIII
AAAAAAAAAAAAAAAAAAAAAAAAA111111111111111111IIIIIIIIIIIIIIIIIIIII
AAAAAAAAAAAAAAAAAAAAAAAAAA111111111111111111IIIIIIIIIIIIIIIIIIII
AAAAAAAAAAAAAAAAAAAAAAAAAAA111111111111111111IIIIIIIIIIIIIIIIIII
AAAAAAAAAAAAAAAAAAAAAAAAAAAA111111111111111111IIIIIIIIIIIIIIIIII
AAAAAAAAAAAAAAAAAAAAAAAAAAAAA111111111111111111IIIIIIIIIIIIIIIII
AAAAAAAAAAAAAAAAAAAAAAAAAAAAAA111111111111111111IIIIIIIIIIIIIIII
AAAAAAAAAAAAAAAAAAAAAAAAAAAAAAA111111111111111111IIIIIIIIIIIIIII
AAAAAAAAAAAAAAAAAAAAAAAAAAAAAAAA111111111111111111IIIIIIIIIIIIII
AAAAAAAAAAAAAAAAAAAAAAAAAAAAAAAAA111111111111111111IIIIIIIIIIIII
AAAAAAAAAAAAAAAAAAAAAAAAAAAAAAAAAA111111111111111111IIIIIIIIIIII
AAAAAAAAAAAAAAAAAAAAAAAAAAAAAAAAAAA111111111111111111IIIIIIIIIII
AAAAAAAAAAAAAAAAAAAAAAAAAAAAAAAAAAAA111111111111111111IIIIIIIIII
AAAAAAAAAAAAAAAAAAAAAAAAAAAAAAAAAAAAA111111111111111111IIIIIIIII
AAAAAAAAAAAAAAAAAAAAAAAAAAAAAAAAAAAAAA111111111111111111IIIIIIII
AAAAAAAAAAAAAAAAAAAAAAAAAAAAAAAAAAAAAAA111111111111111111IIIIIII
AAAAAAAAAAAAAAAAAAAAAAAAAAAAAAAAAAAAAAAA111111111111111111IIIIII
AAAAAAAAAAAAAAAAAAAAAAAAAAAAAAAAAAAAAAAAA111111111111111111IIIII
AAAAAAAAAAAAAAAAAAAAAAAAAAAAAAAAAAAAAAAAAA111111111111111111IIII
AAAAAAAAAAAAAAAAAAAAAAAAAAAAAAAAAAAAAAAAAAA111111111111111111III
AAAAAAAAAAAAAAAAAAAAAAAAAAAAAAAAAAAAAAAAAAAA111111111111111111II
AAAAAAAAAAAAAAAAAAAAAAAAAAAAAAAAAAAAAAAAAAAAA111111111111111111I
AAAAAAAAAAAAAAAAAAAAAAAAAAAAAAAAAAAAAAAAAAAAAA111111111111111111
AAAAAAAAAAAAAAAAAAAAAAAAAAAAAAAAAAAAAAAAAAAAAAA11111111111111111
AAAAAAAAAAAAAAAAAAAAAAAAAAAAAAAAAAAAAAAAAAAAAAAA1111111111111111
AAAAAAAAAAAAAAAAAAAAAAAAAAAAAAAAAAAAAAAAAAAAAAAAA111111111111111
AAAAAAAAAAAAAAAAAAAAAAAAAAAAAAAAAAAAAAAAAAAAAAAAAA11111111111111
AAAAAAAAAAAAAAAAAAAAAAAAAAAAAAAAAAAAAAAAAAAAAAAAAAA1111111111111
AAAAAAAAAAAAAAAAAAAAAAAAAAAAAAAAAAAAAAAAAAAAAAAAAAAA111111111111
AAAAAAAAAAAAAAAAAAAAAAAAAAAAAAAAAAAAAAAAAAAAAAAAAAAAA11111111111
AAAAAAAAAAAAAAAAAAAAAAAAAAAAAAAAAAAAAAAAAAAAAAAAAAAAAA1111111111
AAAAAAAAAAAAAAAAAAAAAAAAAAAAAAAAAAAAAAAAAAAAAAAAAAAAAAA111111111
AAAAAAAAAAAAAAAAAAAAAAAAAAAAAAAAAAAAAAAAAAAAAAAAAAAAAAAA11111111
AAAAAAAAAAAAAAAAAAAAAAAAAAAAAAAAAAAAAAAAAAAAAAAAAAAAAAAAA1111111
AAAAAAAAAAAAAAAAAAAAAAAAAAAAAAAAAAAAAAAAAAAAAAAAAAAAAAAAAA111111
AAAAAAAAAAAAAAAAAAAAAAAAAAAAAAAAAAAAAAAAAAAAAAAAAAAAAAAAAAA11111
AAAAAAAAAAAAAAAAAAAAAAAAAAAAAAAAAAAAAAAAAAAAAAAAAAAAAAAAAAAA1111
AAAAAAAAAAAAAAAAAAAAAAAAAAAAAAAAAAAAAAAAAAAAAAAAAAAAAAAAAAAAA111
AAAAAAAAAAAAAAAAAAAAAAAAAAAAAAAAAAAAAAAAAAAAAAAAAAAAAAAAAAAAAA11
AAAAAAAAAAAAAAAAAAAAAAAAAAAAAAAAAAAAAAAAAAAAAAAAAAAAAAAAAAAAAAA1
AAAAAAAAAAAAAAAAAAAAAAAAAAAAAAAAAAAAAAAAAAAAAAAAAAAAAAAAAAAAAAAA
IIIIAIIIIIIIIIIIIIIIIIIII1IIIIIIIIIIIIIIIIIIII2IIIIIIIIIIIIIIIII
IIIIAIIIIIAIIIIIIIIIIIIII1IIIII1IIIIIIIIIIIIII2IIIII2IIIIIIIIIII
IIIIAIIIIIAIIIIIIIIIAIIII1IIIII1IIIIIIIII1IIII2IIIII2IIIIIIIII2I
IIIIAIIIIIAIIIIIIIIIAIIII1IIIIIAIIIIIIIII1IIII2IIIII1IIIIIIIII2I
IIIIAIIIIIAIIIIAIIIIAIIII1IIIIIAIIII1IIII1IIII2IIIII1IIII2IIII2I
IIIIAIIIIIAIIIIAIIIIAIIII1IIIIIAIIII1IIIIAIIII2IIIII1IIII2IIII1I
IIIIAIIIIIAIIIIAIIIIAIIIIAIIIIIAIIII1IIIIAIIII1IIIII1IIII2IIII1I
IIIIAIIIIIAIIIIAIIIIAIIIIAIIIIIAIIII1IIIIAIIII1IIIIIAIIII2IIII1I
IIIIAIIIIIAIIIIAIIIIAIIIIAIIIIIAIIIIAIIIIAIIII1IIIIIAIIII1IIII1I
IIIIAIIIIIAIIIIAIIIIAIIIIAIIIIIAIIIIAIIIIAIIII1IIIIIAIIIIAIIII1I
IIIIAIIIIIAIIIIAIIIIAIIIIAIIIIIAIIIIAIIIIAIIIIAIIIIIAIIIIAIIII1I
IIIIAIIIIIAIIIIAIIIIAIIIIAIIIIIAIIIIAIIIIAIIIIAIIIIIAIIIIAIIIIAI
III1AIIIIIAIIIIAIIIIAIII2AIIIIIAIIIIAIIIIAIIIIAIIIIIAIIIIAIIIIAI
III1AIII1AAIIIIAIIIIAIII2AIII2IAIIIIAIIIIAIIIIAIIIIIAIIIIAIIIIAI
III1AIII1AAII1AAIIIIAIII2AIII2IAII2IAIIIIAIIIIAIIIIIAIIIIAIIIIAI
III1AIII1AAII1AAII1AAIII2AIII2IAII2IAII2IAIIIIAIIIIIAIIIIAIIIIAI
III1AIII1AAII1AAII1AAIII1AIII2IAII2IAII2IAIII2AIIIIIAIIIIAIIIIAI
III1AIII1AAII1AAII1AAIII1AIII1AAII2IAII2IAIII2AIII2IAIIIIAIIIIAI
III1AIII1AAII1AAII1AAIII1AIII1AAII1AAII2IAIII2AIII2IAII2IAIIIIAI
III1AIII1AAII1AAII1AAIII1AIII1AAII1AAII1AAIII2AIII2IAII2IAII2IAI
III1AIII1AAII1AAII1AAIII1AIII1AAII1AAII1AAIII1AIII2IAII2IAII2IAI
III1AIII1AAII1AAII1AAIII1AIII1AAII1AAII1AAIII1AIII1AAII2IAII2IAI
III1AIII1AAII1AAII1AAIII1AIII1AAII1AAII1AAIII1AIII1AAII1AAII2IAI
III1AIII1AAII1AAII1AAIII1AIII1AAII1AAII1AAIII1AIII1AAII1AAII1AAI
[MLOP] Prefetch Degree Mean: 5.19665
[MLOP] Prefetch Degree SD: 2.62572
[MLOP] Max Score Left Mean (%): 48.8916
[MLOP] Max Score Left SD (%): 27.4817
[MLOP] Max Score Right Mean (%): 87.136
[MLOP] Max Score Right SD (%): 12.1068

DRAM Statistics
 CHANNEL 0
 RQ ROW_BUFFER_HIT:     333388  ROW_BUFFER_MISS:     794343
 DBUS_CONGESTED:       1427
 WQ ROW_BUFFER_HIT:      64887  ROW_BUFFER_MISS:     275607  FULL:       2851

 AVG_CONGESTED_CYCLE: 4
 All warmup complete: 2
Channel 0 Bank busy for read cycles: 0
Channel 0 Bank busy for write cycles: 0
Channel 0
Rank 0
0banks busy for read cycles: 15998917
0banks busy for write cycles: 10978
1banks busy for read cycles: 11442733
1banks busy for write cycles: 2004809
2banks busy for read cycles: 8451931
2banks busy for write cycles: 961878
3banks busy for read cycles: 5440753
3banks busy for write cycles: 644527
4banks busy for read cycles: 4406670
4banks busy for write cycles: 494255
5banks busy for read cycles: 3940661
5banks busy for write cycles: 439443
6banks busy for read cycles: 3529635
6banks busy for write cycles: 420958
7banks busy for read cycles: 2642338
7banks busy for write cycles: 847971
8banks busy for read cycles: 2340299
8banks busy for write cycles: 6510347

CPU 0 Branch Prediction Accuracy: 94.351% MPKI: 2.76314 Average ROB Occupancy at Mispredict: 61.7547
Branch types
NOT_BRANCH: 47553996 95.108%
BRANCH_DIRECT_JUMP: 3916 0.007832%
BRANCH_INDIRECT: 0 0%
BRANCH_CONDITIONAL: 2424087 4.84817%
BRANCH_DIRECT_CALL: 8847 0.017694%
BRANCH_INDIRECT_CALL: 0 0%
BRANCH_RETURN: 8845 0.01769%
BRANCH_OTHER: 0 0%

DRAM PAGES: 1048576
Allocated PAGES: 7750
