
*** ChampSim Multicore Out-of-Order Simulator ***

Warmup Instructions: 50000000
Simulation Instructions: 50000000
Number of CPUs: 1
LLC sets: 2048
LLC ways: 16
Off-chip DRAM Size: 4096 MB Channels: 1 Width: 64-bit Data Rate: 6400 MT/s
CPU 0 runs ../tracer/traces/605.mcf_s-782B.champsimtrace.xz
.xz
CPU 0 Bimodal branch predictor
BTB has LRU replacement policy
ITLB has LRU replacement policy
DTLB has LRU replacement policy
STLB has LRU replacement policy
L1I has LRU replacement policy
L1D has LRU replacement policy
Initialize SRRIP state for L2C
Initialize Hawkeye state
Heartbeat CPU 0 instructions: 10000001 cycles: 3755154 heartbeat IPC: 2.66301 cumulative IPC: 2.66301 (Simulation time: 0 hr 3 min 37 sec) 
Heartbeat CPU 0 instructions: 20000000 cycles: 7498577 heartbeat IPC: 2.67135 cumulative IPC: 2.66717 (Simulation time: 0 hr 7 min 13 sec) 
Heartbeat CPU 0 instructions: 30000000 cycles: 11289169 heartbeat IPC: 2.63811 cumulative IPC: 2.65741 (Simulation time: 0 hr 10 min 52 sec) 
Heartbeat CPU 0 instructions: 40000003 cycles: 15053713 heartbeat IPC: 2.65636 cumulative IPC: 2.65715 (Simulation time: 0 hr 14 min 29 sec) 
Heartbeat CPU 0 instructions: 50000000 cycles: 18847937 heartbeat IPC: 2.63558 cumulative IPC: 2.65281 (Simulation time: 0 hr 18 min 8 sec) 

Warmup complete CPU 0 instructions: 50000001 cycles: 18847938 (Simulation time: 0 hr 18 min 8 sec) 

Heartbeat CPU 0 instructions: 60000000 cycles: 81871235 heartbeat IPC: 0.158671 cumulative IPC: 0.158671 (Simulation time: 0 hr 25 min 50 sec) 
Heartbeat CPU 0 instructions: 70000002 cycles: 144936394 heartbeat IPC: 0.158566 cumulative IPC: 0.158619 (Simulation time: 0 hr 33 min 31 sec) 
Heartbeat CPU 0 instructions: 80000002 cycles: 208983681 heartbeat IPC: 0.156135 cumulative IPC: 0.157782 (Simulation time: 0 hr 41 min 18 sec) 
Heartbeat CPU 0 instructions: 90000000 cycles: 275914054 heartbeat IPC: 0.149409 cumulative IPC: 0.155602 (Simulation time: 0 hr 49 min 21 sec) 
Heartbeat CPU 0 instructions: 100000001 cycles: 344308302 heartbeat IPC: 0.146211 cumulative IPC: 0.153629 (Simulation time: 0 hr 57 min 15 sec) 
Finished CPU 0 instructions: 50000000 cycles: 325460364 cumulative IPC: 0.153629 (Simulation time: 0 hr 57 min 15 sec) 

ChampSim completed all CPUs

Region of Interest Statistics

CPU 0 cumulative IPC: 0.153629 instructions: 50000000 cycles: 325460364
ITLB TOTAL     ACCESS:    8122704  HIT:    8122704  MISS:          0  HIT %:        100  MISS %:          0   MPKI: 0
ITLB LOAD TRANSLATION ACCESS:    8122704  HIT:    8122704  MISS:          0  HIT %:        100  MISS %:          0   MPKI: 0
ITLB PREFETCH  REQUESTED:          0  ISSUED:          0  USEFUL:          0  USELESS:          0
ITLB USEFUL LOAD PREFETCHES:          0 PREFETCH ISSUED TO LOWER LEVEL:          0  ACCURACY: -nan
ITLB TIMELY PREFETCHES:          0 LATE PREFETCHES: 0 DROPPED PREFETCHES: 0
ITLB PREFETCHES SAME FILL-ORIGIN LEVEL: 0 DIFFERENT FILL-ORIGIN LEVEL: 0
ITLB AVERAGE MISS LATENCY: -nan cycles
ITLB RQ	ACCESS:    8240367	FORWARD:          0	MERGED:     117664	TO_CACHE:    8122703

DTLB TOTAL     ACCESS:   10630605  HIT:    6378395  MISS:    4252210  HIT %:    60.0003  MISS %:    39.9997   MPKI: 85.0442
DTLB LOAD TRANSLATION ACCESS:   10630605  HIT:    6378395  MISS:    4252210  HIT %:    60.0003  MISS %:    39.9997   MPKI: 85.0442
DTLB PREFETCH  REQUESTED:          0  ISSUED:          0  USEFUL:          0  USELESS:          0
DTLB USEFUL LOAD PREFETCHES:          0 PREFETCH ISSUED TO LOWER LEVEL:          0  ACCURACY: -nan
DTLB TIMELY PREFETCHES:          0 LATE PREFETCHES: 0 DROPPED PREFETCHES: 0
DTLB PREFETCHES SAME FILL-ORIGIN LEVEL: 0 DIFFERENT FILL-ORIGIN LEVEL: 0
DTLB AVERAGE MISS LATENCY: 11.2088 cycles
DTLB RQ	ACCESS:   11818350	FORWARD:          0	MERGED:    1122142	TO_CACHE:   10696208

STLB TOTAL     ACCESS:    6957859  HIT:    6900778  MISS:      57081  HIT %:    99.1796  MISS %:   0.820382   MPKI: 1.14162
STLB LOAD TRANSLATION ACCESS:    4252209  HIT:    4195128  MISS:      57081  HIT %:    98.6576  MISS %:    1.34238   MPKI: 1.14162
STLB TRANSLATION FROM L1D PREFETCHER ACCESS:    2705650  HIT:    2705650  MISS:          0  HIT %:        100  MISS %:          0   MPKI: 0
STLB PREFETCH  REQUESTED:          0  ISSUED:          0  USEFUL:          0  USELESS:          0
STLB USEFUL LOAD PREFETCHES:          0 PREFETCH ISSUED TO LOWER LEVEL:          0  ACCURACY: -nan
STLB TIMELY PREFETCHES:          0 LATE PREFETCHES: 0 DROPPED PREFETCHES: 0
STLB PREFETCHES SAME FILL-ORIGIN LEVEL: 0 DIFFERENT FILL-ORIGIN LEVEL: 0
STLB AVERAGE MISS LATENCY: 140.093 cycles
STLB RQ	ACCESS:   15076227	FORWARD:          0	MERGED:    8118368	TO_CACHE:    6957859

STLB Hit, L1D data hit: 0
STLB Hit, L2C data hit: 0
STLB Hit, LLC data hit: 0
STLB Hit, LLC data miss: 0
STLB STLB hints to L2: 0
L1D TOTAL     ACCESS:   20127495  HIT:    5557580  MISS:   14569915  HIT %:    27.6119  MISS %:    72.3881   MPKI: 291.398
L1D LOAD      ACCESS:   10574493  HIT:    4544982  MISS:    6029511  HIT %:    42.9806  MISS %:    57.0194   MPKI: 120.59
L1D RFO       ACCESS:    1025842  HIT:    1007339  MISS:      18503  HIT %:    98.1963  MISS %:    1.80369   MPKI: 0.37006
L1D PREFETCH  ACCESS:    8527160  HIT:       5259  MISS:    8521901  HIT %:  0.0616735  MISS %:    99.9383   MPKI: 170.438
AGUS PREFETCH L1 MISS: 0
L1D PREFETCH  REQUESTED:   21661195  ISSUED:   21661195  USEFUL:    1508991  USELESS:    7012709
L1D USEFUL LOAD PREFETCHES:    1508991 PREFETCH ISSUED TO LOWER LEVEL:   11239616  ACCURACY: 13.4256
L1D TIMELY PREFETCHES:    1508991 LATE PREFETCHES: 153688 DROPPED PREFETCHES: 0
L1D PREFETCHES SAME FILL-ORIGIN LEVEL: 8757797 DIFFERENT FILL-ORIGIN LEVEL: 2481819
L1D AVERAGE MISS LATENCY: 1.88118e+06 cycles
L1D RQ	ACCESS:   17778559	FORWARD:          0	MERGED:    6873628	TO_CACHE:   10744558
L1D WQ	ACCESS:    1110839	FORWARD:     160405	MERGED:      37047	TO_CACHE:    1073792
L1D PQ	ACCESS:   10837177	FORWARD:          0	MERGED:      13127	TO_CACHE:   10824018

L1D UNIQUE REGIONS ACCESSED: 0
L1D REGIONS CONFLICTS: 0
L1D Cross Page Prefetch Requests: 0
L1D Same Page Prefetch Requests: 17624323
L1D ROI Sum of L1D PQ occupancy: 158858910
L1D PREFETCHES PUSHED FROM L2C: 0
L1I TOTAL     ACCESS:    8240367  HIT:    8240367  MISS:          0  HIT %:        100  MISS %:          0   MPKI: 0
L1I LOAD      ACCESS:    8240367  HIT:    8240367  MISS:          0  HIT %:        100  MISS %:          0   MPKI: 0
L1I PREFETCH  REQUESTED:          0  ISSUED:          0  USEFUL:          0  USELESS:          0
L1I USEFUL LOAD PREFETCHES:          0 PREFETCH ISSUED TO LOWER LEVEL:          0  ACCURACY: -nan
L1I TIMELY PREFETCHES:          0 LATE PREFETCHES: 0 DROPPED PREFETCHES: 0
L1I PREFETCHES SAME FILL-ORIGIN LEVEL: 0 DIFFERENT FILL-ORIGIN LEVEL: 0
L1I AVERAGE MISS LATENCY: -nan cycles
L1I RQ	ACCESS:   11240912	FORWARD:          0	MERGED:    3000545	TO_CACHE:    8240367

BTB TOTAL     ACCESS:   14775563  HIT:   14712769  MISS:      62794  HIT %:     99.575  MISS %:   0.424985   MPKI: 1.25588
BTB BRANCH_DIRECT_JUMP	ACCESS:    1899351  HIT:    1899315  MISS:         36
BTB BRANCH_INDIRECT	ACCESS:          0  HIT:          0  MISS:          0
BTB BRANCH_CONDITIONAL	ACCESS:   12452224  HIT:   12452145  MISS:         79
BTB BRANCH_DIRECT_CALL	ACCESS:     195242  HIT:     195225  MISS:         17
BTB BRANCH_INDIRECT_CALL	ACCESS:      16752  HIT:      16744  MISS:          8
BTB BRANCH_RETURN	ACCESS:     211994  HIT:     149340  MISS:      62654
BTB BRANCH_OTHER ACCESS:          0  HIT:          0  MISS:          0

L2C TOTAL     ACCESS:   16715239  HIT:    2115123  MISS:   14600116  HIT %:    12.6539  MISS %:    87.3461   MPKI: 292.002
L2C LOAD      ACCESS:    5875802  HIT:    1028845  MISS:    4846957  HIT %:    17.5099  MISS %:    82.4901   MPKI: 96.9391
L2C DATA LOAD MPKI: 96.9391
L2C INSTRUCTION LOAD MPKI: 0
L2C RFO       ACCESS:      18490  HIT:       3173  MISS:      15317  HIT %:    17.1606  MISS %:    82.8394   MPKI: 0.30634
L2C PREFETCH  ACCESS:   10606715  HIT:     889644  MISS:    9717071  HIT %:    8.38755  MISS %:    91.6124   MPKI: 194.341
AGUS PREFETCH L1 MISS: 0
L2C DATA PREFETCH MPKI: 194.341
L2C INSTRUCTION PREFETCH MPKI: 0
L2C WRITEBACK ACCESS:     156619  HIT:     155623  MISS:        996  HIT %:    99.3641  MISS %:   0.635938   MPKI: 0.01992
L2C LOAD TRANSLATION ACCESS:      57613  HIT:      37838  MISS:      19775  HIT %:    65.6761  MISS %:    34.3239   MPKI: 0.3955
L2C PREFETCH  REQUESTED:          0  ISSUED:          0  USEFUL:     308002  USELESS:    9408480
L2C USEFUL LOAD PREFETCHES:     308002 PREFETCH ISSUED TO LOWER LEVEL:    9775143  ACCURACY: 3.15087
L2C TIMELY PREFETCHES:     308002 LATE PREFETCHES: 58065 DROPPED PREFETCHES: 0
L2C PREFETCHES SAME FILL-ORIGIN LEVEL: 1926324 DIFFERENT FILL-ORIGIN LEVEL: 0
L2C AVERAGE MISS LATENCY: 159.459 cycles
L2C RQ	ACCESS:    5951931	FORWARD:          0	MERGED:          0	TO_CACHE:    5951907
L2C WQ	ACCESS:     156619	FORWARD:         24	MERGED:          0	TO_CACHE:     156619
L2C PQ	ACCESS:   10712513	FORWARD:          0	MERGED:        669	TO_CACHE:   10711844

L2C Instructions Evicting Data 0
L2C Translations Evicting Data 19753
L2C Data Evicting Data 14559581
L2C Instructions Evicting Instructions 0
L2C Translations Evicting Instructions 0
L2C Data Evicting Instructions 0
L2C Instructions Evicting Translations 0
L2C Translations Evicting Translations 22
L2C Data Evicting Translations 19764
L2C Dense regions hint from L2: 0
PSCL5 TOTAL     ACCESS:      57081  HIT:      57081  MISS:          0  HIT %:        100  MISS %:          0   MPKI: 0
PSCL5 LOAD TRANSLATION ACCESS:      57081  HIT:      57081  MISS:          0  HIT %:        100  MISS %:          0   MPKI: 0
PSCL5 PREFETCH  REQUESTED:          0  ISSUED:          0  USEFUL:          0  USELESS:          0
PSCL5 USEFUL LOAD PREFETCHES:          0 PREFETCH ISSUED TO LOWER LEVEL:          0  ACCURACY: -nan
PSCL5 TIMELY PREFETCHES:          0 LATE PREFETCHES: 0 DROPPED PREFETCHES: 0
PSCL5 PREFETCHES SAME FILL-ORIGIN LEVEL: 0 DIFFERENT FILL-ORIGIN LEVEL: 0

PSCL4 TOTAL     ACCESS:      57081  HIT:      57081  MISS:          0  HIT %:        100  MISS %:          0   MPKI: 0
PSCL4 LOAD TRANSLATION ACCESS:      57081  HIT:      57081  MISS:          0  HIT %:        100  MISS %:          0   MPKI: 0
PSCL4 PREFETCH  REQUESTED:          0  ISSUED:          0  USEFUL:          0  USELESS:          0
PSCL4 USEFUL LOAD PREFETCHES:          0 PREFETCH ISSUED TO LOWER LEVEL:          0  ACCURACY: -nan
PSCL4 TIMELY PREFETCHES:          0 LATE PREFETCHES: 0 DROPPED PREFETCHES: 0
PSCL4 PREFETCHES SAME FILL-ORIGIN LEVEL: 0 DIFFERENT FILL-ORIGIN LEVEL: 0

PSCL3 TOTAL     ACCESS:      57081  HIT:      57081  MISS:          0  HIT %:        100  MISS %:          0   MPKI: 0
PSCL3 LOAD TRANSLATION ACCESS:      57081  HIT:      57081  MISS:          0  HIT %:        100  MISS %:          0   MPKI: 0
PSCL3 PREFETCH  REQUESTED:          0  ISSUED:          0  USEFUL:          0  USELESS:          0
PSCL3 USEFUL LOAD PREFETCHES:          0 PREFETCH ISSUED TO LOWER LEVEL:          0  ACCURACY: -nan
PSCL3 TIMELY PREFETCHES:          0 LATE PREFETCHES: 0 DROPPED PREFETCHES: 0
PSCL3 PREFETCHES SAME FILL-ORIGIN LEVEL: 0 DIFFERENT FILL-ORIGIN LEVEL: 0

PSCL2 TOTAL     ACCESS:      57081  HIT:      56350  MISS:        731  HIT %:    98.7194  MISS %:    1.28064   MPKI: 0.01462
PSCL2 LOAD TRANSLATION ACCESS:      57081  HIT:      56350  MISS:        731  HIT %:    98.7194  MISS %:    1.28064   MPKI: 0.01462
PSCL2 PREFETCH  REQUESTED:          0  ISSUED:          0  USEFUL:          0  USELESS:          0
PSCL2 USEFUL LOAD PREFETCHES:          0 PREFETCH ISSUED TO LOWER LEVEL:          0  ACCURACY: -nan
PSCL2 TIMELY PREFETCHES:          0 LATE PREFETCHES: 0 DROPPED PREFETCHES: 0
PSCL2 PREFETCHES SAME FILL-ORIGIN LEVEL: 0 DIFFERENT FILL-ORIGIN LEVEL: 0

LLC TOTAL     ACCESS:   14720694  HIT:    6130785  MISS:    8589909  HIT %:    41.6474  MISS %:    58.3526   MPKI: 171.798
LLC LOAD      ACCESS:    4788892  HIT:    2797193  MISS:    1991699  HIT %:      58.41  MISS %:      41.59   MPKI: 39.834
LLC RFO       ACCESS:      15316  HIT:      12348  MISS:       2968  HIT %:    80.6216  MISS %:    19.3784   MPKI: 0.05936
LLC PREFETCH  ACCESS:    9775137  HIT:    3207798  MISS:    6567339  HIT %:    32.8159  MISS %:    67.1841   MPKI: 131.347
AGUS PREFETCH L1 MISS: 0
LLC WRITEBACK ACCESS:     121574  HIT:     103425  MISS:      18149  HIT %:    85.0716  MISS %:    14.9284   MPKI: 0.36298
LLC LOAD TRANSLATION ACCESS:      19775  HIT:      10021  MISS:       9754  HIT %:    50.6751  MISS %:    49.3249   MPKI: 0.19508
LLC PREFETCH  REQUESTED:          0  ISSUED:          0  USEFUL:     150965  USELESS:    6413793
LLC USEFUL LOAD PREFETCHES:     150965 PREFETCH ISSUED TO LOWER LEVEL:    6567345  ACCURACY: 2.29872
LLC TIMELY PREFETCHES:     150965 LATE PREFETCHES: 0 DROPPED PREFETCHES: 0
LLC PREFETCHES SAME FILL-ORIGIN LEVEL: 0 DIFFERENT FILL-ORIGIN LEVEL: 0
LLC AVERAGE MISS LATENCY: 219.601 cycles
LLC RQ	ACCESS:    4823986	FORWARD:          0	MERGED:          0	TO_CACHE:    4823985
LLC WQ	ACCESS:     121574	FORWARD:          1	MERGED:          0	TO_CACHE:     121574
LLC PQ	ACCESS:    9775143	FORWARD:          0	MERGED:          0	TO_CACHE:    9775143

LLC Dense regions hint to LLC: 0

RAW hits: 131767
Loads Generated: 17910326
Loads sent to L1D: 17778559
Stores Generated: 1110839
Stores sent to L1D: 1110839
Major fault: 0 Minor fault: 86300
Allocated PAGES: 86300
=== CPU 0 L1D Prefetcher Statistics ===
[MLOP] History of tracked zone:
IIIIIIIIIIIIIIIIIIIIIIIIIIIIIIIIIIIIIIIIIIIIIIIIIIIIIIIIIIIIIIII
IIIIIIIIIIIIIIIIIIIIIIIIIIIIIIIIIIIIIIIIIIIIIIIIIIIIIIIIIIIIIIAI
IIIIIIIIIIIIIIIIIIIIIIIIIIIIIIIIIIIIIIIIIIIIIIIIIIIIIIIIIIIIIAAI
IIIIIIIIIIIIIIIIIIIIIIAIIIIIIIIIIIIIIIIIIIIIIIIIIIIIIIIIIIIIIIII
IIIIIIIIIIIIIIIIIIIIIIAI1111IIIIIIIIIIIIIIIIIIIIIIIIIIIIIIIIIIII
IIIIIIIIIAIIIIIIIIIIIIIIIIIIIIIIIIIIIIIIIIIIIIIIIIIIIIIIIIIIIIII
IIIIIIIIIAIIIIIIIIIIIIIIIIIIIIIIIIIIIIIIIIIIIIIIIIAIIIIIIIIIIIII
IIIIIIIIIIIIIIIIIIIIIIIIIIIIIIIIIIIIIIIIIIIIIIIIIIIIIIIIIIIIIAI1
IIIIIIIIIIIIIIIIIIIIIIIIIIIIIIIIIIIIIIIIIIIIIIAI1IIIIIIIIIIIIAI1
IIIIIIIIIAI1111IIIIIIIIIIIIIIIIIIIIIIIIIIIIIIIAI1IIIIIIIIIIIIAI1
IIIIIIIIIAI1111IIIIIIIAIIIIIIIIIIIIIIIIIIIIIIIAI1IIIIIIIIIIIIAI1
IIIIIIIIIIIIIIIIIIIIIIIIIAIIIIIIIIIIIIIIIIIIIIIIIIIIIIIIIIIIIIII
IIIIIIIIIIIIIIIIIIIIIIAIIIIIIIIIIIIIIIIIIIIIIIIIIIIIIIIIIIIIIIII
IIIIIIIIIAIIIIIIIIIIIIIIIIIIIIIIIIIIIIIIIIIIIIIIIIIIIIIIIIIIIIII
IIIIIIIIIAIIIIIIIIIIIIIIIIIIIIIIIIIIIIIIIIIIIIIIIIAIIIIIIIIIIIII
IIIIIIIIIIIIIIIIIIIIIIIIIIIIIIIIIIIIIIIIIIIIIIIIIIIIIIIIIIIIIAII
IIIIIIIIIIIIIIIIIIIIIIIIIIIIIIIIIIIIIIIIIIIIIIAIIIIIIIIIIIIIIAII
IIIIIIIIIAIIIIIIIIIIIIIIIIIIIIIIIIIIIIIIIIIIIIAIIIIIIIIIIIIIIAII
IIIIIIIIIAIIIIIIIIIIIIAIIIIIIIIIIIIIIIIIIIIIIIAIIIIIIIIIIIIIIAII
IIIIIIIIIAIIIIIIIIIIIIAIIIIIIIIIIIIIIIIIIIIIIIAIIIIIIIIIIIIIIAAI
IIIIIIIIIAIIIIIIIIIIIIAIIIIIIIIIIIIIIIIIIIIIIIAIIIIIIIIIIIIIIAA1
IIIIIIIIIIIIIIIIIIIIIIAIIIIIIIIIIIIIIIIIIIIIIIIIIIIIIIIIIIIIIIII
IIIIIIIIIIIIIIIIIIIIIIAIAI11IIIIIIIIIIIIIIIIIIIIIIIIIIIIIIIIIIII
IIIIIIIIIAI111IIIIIIIIIIIIIIIIIIIIIIIIIIIIIIIIIIIIIIIIIIIIIIIIII
IIIIIIIIIAI111IIIIIIIIIIIIIIIIIIIIIIIIIIIIIIIIIIIIAIIIIIIIIIIIII
IIIIIIIIIIIIIIIIIIIIIIIIIIIIIIIIIIIIIIIIIIIIIIIIIIIIIIIIIIIIIAII
IIIIIIIIIIIIIIIIIIIIIIIIIIIIIIIIIIIIIIIIIIIIIIAI1IIIIIIIIIIIIAII
IIIIIIIIIAI1IIIIIIIIIIIIIIIIIIIIIIIIIIIIIIIIIIAI1IIIIIIIIIIIIAII
IIIIIIIIIAI1IIIIIIIIIIAI1IIIIIIIIIIIIIIIIIIIIIAI1IIIIIIIIIIIIAII
IIIIA1IIIIIIIIIIIIIIIIIIIIIIIIIIIIIIIIIIIIIIIIIIIIIIIIIIIIIIIIII
IIIIIIIIIIIIIIIIIIIIIIAI1IIIIIIIIIIIIIIIIIIIIIIIIIIIIIIIIIIIIIII
IIIIIIIIIIIIIIIIIIIIIIAI1IIIIIAIIIIIIIIIIIIIIIIIIIIIIIIIIIIIIIII
IIIIIIIIIAIIIIIIIIIIIIIIIIIIIIIIIIIIIIIIIIIIIIIIIIIIIIIIIIIIIIII
IIIIIIIIIAIIIIIIIIIIIIIIIIIIIIIIIIIIIIIIIIIIIIIIIIAIIIIIIIIIIIII
IIIIIIIIIIIIIIIIIIIIIIIIIIIIIIIIIIIIIIIIIIIIIIIIIIIIIIIIIIIIIAII
IIIIIIIIIIIIIIIIIIIIIIIIIIIIIIIIIIIIIIIIIIIIIIAIIIIIIIIIIIIIIAII
IIIIIIIIIAI1IIIIIIIIIIIIIIIIIIIIIIIIIIIIIIIIIIAIIIIIIIIIIIIIIAII
IIIIIIIIIAI1IIIIIIIIIIAI11IIIIIIIIIIIIIIIIIIIIAIIIIIIIIIIIIIIAII
IIIIIIIIIIIIIIIIIIIIIIIIIIIIIIIIIIIIIIIIIIIIIIIIIIIIIIIIIIIIIIAI
IIIIIIIIIIIIIIIIIIIIIIIIIIIIIIIIIIIIIIIIIIIIIIIIIIIIIIIIIIIIIAAI
IIIIIIIIIIIIIIIIIIIIIIIIIIIIIIIIIIIIIIIIIIIIIIIIIIIIIIIIIIIIIAA1
IIIIIIIIIIIIIIAIIIIIIIIIIIIIIIIIIIIIIIIIIIIIIIIIIIIIIIIIIIIIIIII
IIIIIIIIIIIIIIIIIIIIIIAI11IIIIIIIIIIIIIIIIIIIIIIIIIIIIIIIIIIIIII
IIIIIIIIIIIIIIIIIIIIIIAI11IIIIIIIAI1IIIIIIIIIIIIIIIIIIIIIIIIIIII
IIIIIIIIIAIIIIIIIIIIIIIIIIIIIIIIIIIIIIIIIIIIIIIIIIIIIIIIIIIIIIII
IIIIIIIIIAIIIIIIIIIIIIIIIIIIIIIIIIIIIIIIIIIIIIIIIIAI1IIIIIIIIIII
IIIIIIIIIIIIIIIIIIIIIIIIIIIIIIIIIIIIIIIIIIIIIIIIIIIIIIIIIIIIIAII
IIIIIIIIIIIIIIIIIIIIIIIIIIIIIIIIIIIIIIIIIIIIIIAII1IIIIIIIIIIIAII
IIIIIIIIIAII1IIIIIIIIIIIIIIIIIIIIIIIIIIIIIIIIIIIIIIIIIIIIIIIIIII
IIIIIIIIIAII1IIIIIIIIIAIIIIIIIIIIIIIIIIIIIIIIIIIIIIIIIIIIIIIIIII
IIIIIIIIIAII1IIIIIIIIIAIIIIIIIIIIIIIIIIIIIIIIIIIIIIIIIIIIIIIIIAI
IIIIIIIIIAII1IIIIIIIIIAIIIIIIIIIIIIIIIIIIIIIIIIIIIIIIIIIIIIIIAAI
IIIIIIIIIAII1IIIIIIIIIAIIAIIIIIIIIIIIIIIIIIIIIIIIIIIIIIIIIIIIAAI
IIIIIIIIIIIIIIAIIIIIIIIIIIIIIIIIIIIIIIIIIIIIIIIIIIIIIIIIIIIIIIII
IIIIIIIIIIIIIIIIIIIIIIAI1IIIIIIIIIIIIIIIIIIIIIIIIIIIIIIIIIIIIIII
IIIIIIIIIIIIIIIIIIIIIIAI1IIIIIIIIAIIIIIIIIIIIIIIIIIIIIIIIIIIIIII
IIIIIIIIIAIIIIIIIIIIIIIIIIIIIIIIIIIIIIIIIIIIIIIIIIIIIIIIIIIIIIII
IIIIIIIIIAIIIIIIIIIIIIIIIIIIIIIIIIIIIIIIIIIIIIIIIIAIIIIIIIIIIIII
IIIIIIIIIIIIIIIIIIIIIIIIIIIIIIIIIIIIIIIIIIIIIIIIIIIIIIIIIIIIIAII
IIIIIIIIIIIIIIIIIIIIIIIIIIIIIIIIIIIIIIIIIIIIIIAI1111IIIIIIIIIAII
IIIIIIIIIIIAIIIIIIIIIIIIIIIIIIIIIIIIIIIIIIIIIIAI1111IIIIIIIIIAII
IIIIIIIIIIIAIIIIIIIIIIAI11IIIIIIIIIIIIIIIIIIIIAI1111IIIIIIIIIAII
IIIIIIIIIIIAIIIIIIIIIIAI11IIIIIIIIIIIIIIIIIIIIAI1111IIIIIIIIIAAI
IIIIIIIIIIIAIIIIIIIIIIAI11IIIIIIIIIIIIIIIIIIIIAI1111IIIIIIIIIAA1
IIIIIIIIIIIIIIAI11IIIIIIIIIIIIIIIIIIIIIIIIIIIIIIIIIIIIIIIIIIIIII
IIIIIIIIIIIIIIIIIIIIIIAI1IIIIIIIIIIIIIIIIIIIIIIIIIIIIIIIIIIIIIII
IIIIIIIIIIIIIIIIIIIIIIAI1IIIIIIIIAIIIIIIIIIIIIIIIIIIIIIIIIIIIIII
IIIIIIIIIAIIIIIIIIIIIIIIIIIIIIIIIIIIIIIIIIIIIIIIIIIIIIIIIIIIIIII
IIIIIIIIIAIIIIIIIIIIIIIIIIIIIIIIIIIIIIIIIIIIIIIIIIAIIIIIIIIIIIII
IIIIIIIIIIIIIIIIIIIIIIIIIIIIIIIIIIIIIIIIIIIIIIIIIIIIIIIIIIIIIAII
IIIIIIIIIIIIIIIIIIIIIIIIIIIIIIIIIIIIIIIIIIIIIIAI11IIIIIIIIIIIAII
IIIIIIIIIIIAI111IIIIIIIIIIIIIIIIIIIIIIIIIIIIIIIIIIIIIIIIIIIIIIII
IIIIIIIIIIIAI111IIIIIIAIIIIIIIIIIIIIIIIIIIIIIIIIIIIIIIIIIIIIIIII
IIIIIIIIIIIIIIAI1IIIIIIIIIIIIIIIIIIIIIIIIIIIIIIIIIIIIIIIIIIIIIII
IIIIIIIIIIIIIIIIIIIIIIAIIIIIIIIIIIIIIIIIIIIIIIIIIIIIIIIIIIIIIIII
IIIIIIIIIIIIIIIIIIIIIIAIIIIIIIIIIAIIIIIIIIIIIIIIIIIIIIIIIIIIIIII
IIIIIIIIIAIIIIIIIIIIIIIIIIIIIIIIIIIIIIIIIIIIIIIIIIIIIIIIIIIIIIII
IIIIIIIIIAIIIIIIIIIIIIIIIIIIIIIIIIIIIIIIIIIIIIIIIIAI11IIIIIIIIII
IIIIIIIIIIIIIIIIIIIIIIIIIIIIIIIIIIIIIIIIIIIIIIIIIIIIIIIIIIIIIAII
IIIIIIIIIIIIIIIIIIIIIIIIIIIIIIIIIIIIIIIIIIIIIIAIIIIIIIIIIIIIIAII
IIIIIIIIIIIAIIIIIIIIIIIIIIIIIIIIIIIIIIIIIIIIIIAIIIIIIIIIIIIIIAII
IIIIIIIIIIIAIIIIIIIIIIAIIIIIIIIIIIIIIIIIIIIIIIAIIIIIIIIIIIIIIAII
IIIIIIIIIIIIIIA1IIIIIIIIIIIIIIIIIIIIIIIIIIIIIIIIIIIIIIIIIIIIIIII
IIIIIIIIIIIIIIIIIIIIIIAII1IIIIIIIIIIIIIIIIIIIIIIIIIIIIIIIIIIIIII
IIIIIIIIIIIIIIIIIIIIIIAII1IIIIIIIAII111IIIIIIIIIIIIIIIIIIIIIIIII
IIIIIIIIIAIIIIIIIIIIIIIIIIIIIIIIIIIIIIIIIIIIIIIIIIIIIIIIIIIIIIII
IIIIIIIIIAIIIIIIIIIIIIIIIIIIIIIIIIIIIIIIIIIIIIIIIIAI11IIIIIIIIII
IIIIIIIIIIIIIIIIIIIIIIIIIIIIIIIIIIIIIIIIIIIIIIIIIIIIIIIIIIIIIAI1
IIIIIIIIIIIIIIIIIIIIIIIIIIIIIIIIIIIIIIIIIIIIIIAI1IIIIIIIIIIIIAI1
IIIIIIIIIIIAIIIIIIIIIIIIIIIIIIIIIIIIIIIIIIIIIIAI1IIIIIIIIIIIIAI1
IIIIIIIIIIIAIIIIIIIIIIAI11IIIIIIIIIIIIIIIIIIIIAI1IIIIIIIIIIIIAI1
IIIIIIIIIIIAIIIIIIIIIIAI11IIIIIIIIIIIIIIIIIIIIAI1IIIIIIIIIIIIAA1
IIIIIIIIIIIIIIAI1IIIIIIIIIIIIIIIIIIIIIIIIIIIIIIIIIIIIIIIIIIIIIII
IIIIIIIIIIIIIIIIIIIIIIAIIIIIIIIIIIIIIIIIIIIIIIIIIIIIIIIIIIIIIIII
IIIIIIIIIIIIIIIIIIIIIIAIIIIIIIIIIAI1111IIIIIIIIIIIIIIIIIIIIIIIII
IIIIIIIIIAIIIIIIIIIIIIIIIIIIIIIIIIIIIIIIIIIIIIIIIIIIIIIIIIIIIIII
IIIIIIIIIAIIIIIIIIIIIIIIIIIIIIIIIIIIIIIIIIIIIIIIIIAIIIIIIIIIIIII
IIIIIIIIIIIIIIIIIIIIIIIIIIIIIIIIIIIIIIIIIIIIIIIIIIIIIIIIIIIIIAII
IIIIIIIIIIIIIIIIIIIIIIIIIIIIIIIIIIIIIIIIIIIIIIAI111IIIIIIIIIIAII
IIIIIIIIIIIAIIIIIIIIIIIIIIIIIIIIIIIIIIIIIIIIIIAI111IIIIIIIIIIAII
IIIIIIIIIIIAIIIIIIIIIIAIIIIIIIIIIIIIIIIIIIIIIIAI111IIIIIIIIIIAII
IIIIIIIIIIIIIIAIIIIIIIIIIIIIIIIIIIIIIIIIIIIIIIIIIIIIIIIIIIIIIIII
IIIIIIIIIIIIIIIIIIIIIIAIIIIIIIIIIIIIIIIIIIIIIIIIIIIIIIIIIIIIIIII
IIIIIIIIIIIIIIIIIIIIIIIIIIIIIIIIIAIIIIIIIIIIIIIIIIIIIIIIIIIIIIII
IIIIIIIIIAIIIIIIIIIIIIIIIIIIIIIIIIIIIIIIIIIIIIIIIIIIIIIIIIIIIIII
IIIIIIIIIAIIIIIIIIIIIIIIIIIIIIIIIIIIIIIIIIIIIIIIIIAIIIIIIIIIIIII
IIIIIIIIIIIIIIIIIIIIIIIIIIIIIIIIIIIIIIIIIIIIIIIIIIIIIIIIIIIIIAII
IIIIIIIIIIIIIIIIIIIIIIIIIIIIIIIIIIIIIIIIIIIIIIAIIIIIIIIIIIIIIAII
IIIIIIIIIIIAI11IIIIIIIIIIIIIIIIIIIIIIIIIIIIIIIAIIIIIIIIIIIIIIAII
IIIIIIIIIIIAI11IIIIIIIAIIIIIIIIIIIIIIIIIIIIIIIAIIIIIIIIIIIIIIAII
IIIIIIIIIIIIIIIIAI11111IIIIIIIIIIIIIIIIIIIIIIIIIIIIIIIIIIIIIIIII
IIIIIIIIIIIIIIAIA111111IIIIIIIIIIIIIIIIIIIIIIIIIIIIIIIIIIIIIIIII
IIIIIIIIIIIIIIIIIIIIIIAIIIIIIIIIIIIIIIIIIIIIIIIIIIIIIIIIIIIIIIII
IIIIIIIIIIIIIIIIIIIIIIAIIIIIIIIIIAI1IIIIIIIIIIIIIIIIIIIIIIIIIIII
IIIIIIIIIAI111IIIIIIIIIIIIIIIIIIIIIIIIIIIIIIIIIIIIIIIIIIIIIIIIII
IIIIIIIIIAI111IIIIIIIIIIIIIIIIIIIIIIIIIIIIIIIIIIIIAIIIIIIIIIIIII
IIIIIIIIIIIIIIIIIIIIIIIIIIIIIIIIIIIIIIIIIIIIIIIIIIIIIIIIIIIIIAII
IIIIIIIIIIIIIIIIIIIIIIIIIIIIIIIIIIIIIIIIIIIIIIAIIIIIIIIIIIIIIAII
IIIIIIIIIIIAI1IIIIIIIIIIIIIIIIIIIIIIIIIIIIIIIIAIIIIIIIIIIIIIIAII
IIIIIIIIIIIAI1IIIIIIIIAIIIIIIIIIIIIIIIIIIIIIIIAIIIIIIIIIIIIIIAII
IIIIIIIIIIIIIIIIIIIIIIIIIIIIIIIIIIIIIIIIIIIAIIIIIIIIIIIIIIIIIIII
IIIIIIIIIIIIIIAIIIIIIIIIIIIIIIIIIIIIIIIIIIIAIIIIIIIIIIIIIIIIIIII
IIIIIIIIIIIIIIIIIIIIIIAIIIIIIIIIIIIIIIIIIIIIIIIIIIIIIIIIIIIIIIII
IIIIIIIIIIIIIIIIIIIIIIAIIIIIIIIIIIIAI11IIIIIIIIIIIIIIIIIIIIIIIII
IIIIIIIIIAI1IIIIIIIIIIIIIIIIIIIIIIIIIIIIIIIIIIIIIIIIIIIIIIIIIIII
IIIIIIIIIAI1IIIIIIIIIIIIIIIIIIIIIIIIIIIIIIIIIIIIIIAIIIIIIIIIIIII
IIIIIIIIIIIIIIIIIIIIIIIIIIIIIIIIIIIIIIIIIIIIIIIIIIIIIIIIIIIIIAII
IIIIIIIIIIIIIIIIIIIIIIIIIIIIIIIIIIIIIIIIIIIIIIAIIIIIIIIIIIIIIAII
IIIIIIIIIIIAI1111IIIIIIIIIIIIIIIIIIIIIIIIIIIIIAIIIIIIIIIIIIIIAII
IIIIIIIIIIIAI1111IIIIIAI11IIIIIIIIIIIIIIIIIIIIAIIIIIIIIIIIIIIAII
IIIIIIIIIIIIIIIIIIIIIIIIIIIIIIIIIIIIIIIIIIIIIIIIIIIIIA1IIIIIIIII
IIIIIIIIIIIIIIAI111IIIIIIIIIIIIIIIIIIIIIIIIIIIIIIIIIIA1IIIIIIIII
IIIIIIIIIIIIIIIIIIIIIIAIIIIIIIIIIIIIIIIIIIIIIIIIIIIIIIIIIIIIIIII
IIIIIIIIIIIIIIIIIIIIIIAIIIIIIIIIIIIAI111IIIIIIIIIIIIIIIIIIIIIIII
IIIIIIIIIAI11IIIIIIIIIAIIIIIIIIIIIIAI111IIIIIIIIIIIIIIIIIIIIIIII
IIIIIIIIIAI11IIIIIIIIIAIIIIIIIIIIIIAI111IIIIIIIIIIAIIIIIIIIIIIII
IIIIIIIIIIIIIIIIIIIIIIIIIIIIIIIIIIIIIIIIIIIIIIIIIIIIIIIIIIIIIAI1
IIIIIIIIIIIIIIIIIIIIIIIIIIIIIIIIIIIIIIIIIIIIIIAIIIIIIIIIIIIIIAI1
IIIIIIIIIIIIIIIIIIIIIIAI1IIIIIIIIIIIIIIIIIIIIIIIIIIIIIIIIIIIIIII
IIIIIIIIIIIIIIIIIIIIIIIIIIIIIIIIIIIIIIIIIIIIIIIIIIIIIIIIIIA1IIII
IIIIIIIIIIIIIIIIAIIIIIIIIIIIIIIIIIIIIIIIIIIIIIIIIIIIIIIIIIA1IIII
IIIIIIIIIIIIIIIIIIIIIIAIIIIIIIIIIIIIIIIIIIIIIIIIIIIIIIIIIIIIIIII
IIIIIIIIIIIIIIIIIIIIIIAIIIIIIIIIIIIIIAIIIIIIIIIIIIIIIIIIIIIIIIII
IIIIIIIIIAIIIIIIIIIIIIIIIIIIIIIIIIIIIIIIIIIIIIIIIIIIIIIIIIIIIIII
IIIIIIIIIAIIIIIIIIIIIIIIIIIIIIIIIIIIIIIIIIIIIIIIIIAIIIIIIIIIIIII
IIIIIIIIIIIIIIIIIIIIIIIIIIIIIIIIIIIIIIIIIIIIIIIIIIIIIIIIIIIIIAII
IIIIIIIIIIIIIIIIIIIIIIIIIIIIIIIIIIIIIIIIIIIIIIAIIIIIIIIIIIIIIAII
IIIIIIIIIIIIIIAI11IIIIIIIIIIIIIIIIIIIIIIIIIIIIAIIIIIIIIIIIIIIAII
IIIIIIIIIIIIIIAI11IIIIAI11IIIIIIIIIIIIIIIIIIIIAIIIIIIIIIIIIIIAII
IIIIIIIIIIIIIIIIIIIIIIIIIIIIIIIIIIIIIIIIIIIIIIIIIIIIIIIIIIIAII1I
IIIIIIIIIIIIIIIIIIIIIIIIAIIIIIIIIIIIIIIIIIIIIIIIIIIIIIIIIIIAII1I
IIIIIIIIIIIIIIIIIIIIIIAIIIIIIIIIIIIIIIIIIIIIIIIIIIIIIIIIIIIIIIII
IIIIIIIIIIIIIIIIIIIIIIAIIIIIIIIIIIIIIAI1IIIIIIIIIIIIIIIIIIIIIIII
IIIIIIIIIAIIIIIIIIIIIIIIIIIIIIIIIIIIIIIIIIIIIIIIIIIIIIIIIIIIIIII
IIIIIIIIIAIIIIIIIIIIIIIIIIIIIIIIIIIIIIIIIIIIIIIIIIAI1IIIIIIIIIII
IIIIIIIIIIIIIIIIIIIIIIIIIIIIIIIIIIIIIIIIIIIIIIIIIIIIIIIIIIIIIAII
IIIIIIIIIIIIIIIIIIIIIIIIIIIIIIIIIIIIIIIIIIIIIIAI11IIIIIIIIIIIAII
IIIIIIIIIIIIIIIIIIIAIIIIIIIIIIIIIIIIIIIIIIIIIIAI11IIIIIIIIIIIAII
IIIIIIIIIIIIIIIIIIIAIIAI111IIIIIIIIIIIIIIIIIIIAI11IIIIIIIIIIIAII
IIIIAIIIIIIIIIIIIIIIIIIIIIIIIIIIIIIIIIIIIIIIIIIIIIIIIIIIIIIIIIII
IIIIAIIIIIIIIIIIIIIIIIIIIIIIIIIIIIIIIIIIIIIIIIIIIIIIIIIIIIIAI111
IIIIAIIIIIIIIIIIIIIIIIIIAI11IIIIIIIIIIIIIIIIIIIIIIIIIIIIIIIAI111
IIIIIIIIIIIIIIIIIIIIIIAI1111IIIIIIIIIIIIIIIIIIIIIIIIIIIIIIIIIIII
IIIIIIIIIIIIIIIIIIIIIIAI1111IIIIIIIIIIAIIIIIIIIIIIIIIIIIIIIIIIII
IIIIIIIIIAIIIIIIIIIIIIIIIIIIIIIIIIIIIIIIIIIIIIIIIIIIIIIIIIIIIIII
IIIIIIIIIAIIIIIIIIIIIIIIIIIIIIIIIIIIIIIIIIIIIIIIIIAI111IIIIIIIII
IIIIIIIIIIIIIIIIIIIIIIIIIIIIIIIIIIIIIIIIIIIIIIIIIIIIIIIIIIIIIAI1
IIIIIIIIIIIIIIIIIIIIIIIIIIIIIIIIIIIIIIIIIIIIIIAI1IIIIIIIIIIIIAI1
IIIIIIIIIIIIIIIIIIIAI11IIIIIIIIIIIIIIIIIIIIIIIAI1IIIIIIIIIIIIAI1
IIIIIIIIIIIIIIIIIIIAI1AI1IIIIIIIIIIIIIIIIIIIIIAI1IIIIIIIIIIIIAI1
IIIIIIIIIIIIIIIIIIIIIIIIA1IIIIIIIIIIIIIIIIIIIIIIIIIIIIIIIIIIIIII
IIIIIIIIIIIIIIIIIIIIIIIIA1IIIAI1IIIIIIIIIIIIIIIIIIIIIIIIIIIIIIII
IIIIIIIIIIIIIIIIIIIIIIAI11IIIIIIIIIIIIIIIIIIIIIIIIIIIIIIIIIIIIII
IIIIIIIIIIIIIIIIIIIIIIAI11IIIIIIIIIIIIIIAIIIIIIIIIIIIIIIIIIIIIII
IIIIIIIIIAIIIIIIIIIIIIIIIIIIIIIIIIIIIIIIIIIIIIIIIIIIIIIIIIIIIIII
IIIIIIIIIAIIIIIIIIIIIIIIIIIIIIIIIIIIIIIIIIIIIIIIIIAIIIIIIIIIIIII
IIIIIIIIIIIIIIIIIIIIIIIIIIIIIIIIIIIIIIIIIIIIIIIIIIIIIIIIIIIIIAII
IIIIIIIIIIIIIIIIIIIIIIIIIIIIIIIIIIIIIIIIIIIIIIAIIIIIIIIIIIIIIAII
IIIIIIIIIIIIIIIIIIIAI1IIIIIIIIIIIIIIIIIIIIIIIIAIIIIIIIIIIIIIIAII
IIIIIIIIIIIIIIIIIIIAI1AIIIIIIIIIIIIIIIIIIIIIIIAIIIIIIIIIIIIIIAII
IIIIIIIIIIIIIIIIIIIAI1AIIIIIIIIIIIIIIIIIIIIIIIAIIIIIIIIIIIIIIAAI
IIIIIIIIIIIIIIIIIIIAI1AIIIIIIIIIIIIIIIIIIIIIIIAIIIIIIIIIIIIIIAA1
IIIIIIIIIIIIIIIIIIIIIIIIIAIIIIIIIIIIIIIIIIIIIIIIIIIIIIIIIIIIIIII
IIIIIIIIIIIIIIIIIIIIIIIIIAIIIIAIIIIIIIIIIIIIIIIIIIIIIIIIIIIIIIII
IIIIIIIIIIIIIIIIIIIIIIAI111IIIIIIIIIIIIIIIIIIIIIIIIIIIIIIIIIIIII
IIIIIIIIIIIIIIIIIIIIIIAI111IIIIIIIIIIIIIIIAI111IIIIIIIIIIIIIIIII
IIIIIIIIIAIIIIIIIIIIIIIIIIIIIIIIIIIIIIIIIIIIIIIIIIIIIIIIIIIIIIII
IIIIIIIIIAIIIIIIIIIIIIIIIIIIIIIIIIIIIIIIIIIIIIIIIIAIIIIIIIIIIIII
IIIIIIIIIIIIIIIIIIIIIIIIIIIIIIIIIIIIIIIIIIIIIIIIIIIIIIIIIIIIIAI1
IIIIIIIIIIIIIIIIIIIIIIIIIIIIIIIIIIIIIIIIIIIIIIAIIIIIIIIIIIIIIAI1
IIIIIIIIIIIIIIIIIIIAIIIIIIIIIIIIIIIIIIIIIIIIIIAIIIIIIIIIIIIIIAI1
IIIIIIIIIIIIIIIIIIIAIIAIIIIIIIIIIIIIIIIIIIIIIIAIIIIIIIIIIIIIIAI1
IIIIIIIIIIIIIIIIIIIIIIIIIIIIIIA1IIIIIIIIIIIIIIIIIIIIIIIIIIIIIIII
IIIIIIIIIIIIIIIIIIIIIIIIIIIIIIA11IIIIIIIIIIIIIIIIIIIIIIIIIIIIIII
IIIIIIIIIIIIIIIIIIIIIIAIIIIIIIIIIIIIIIIIIIIIIIIIIIIIIIIIIIIIIIII
IIIIIIIIIIIIIIIIIIIIIIAIIIIIIIIIIIIIIIIIIIIIIAI1111IIIIIIIIIIIII
IIIIIIIIIAI111IIIIIIIIIIIIIIIIIIIIIIIIIIIIIIIIIIIIIIIIIIIIIIIIII
IIIIIIIIIAI111IIIIIIIIIIIIIIIIIIIIIIIIIIIIIIIIIIIIAIIIIIIIIIIIII
IIIIIIIIIIIIIIIIIIIIIIIIIIIIIIIIIIIIIIIIIIIIIIIIIIIIIIIIIIIIIAII
IIIIIIIIIIIIIIIIIIIIIIIIIIIIIIIIIIIIIIIIIIIIIIAIIIIIIIIIIIIIIAII
IIIIIIIIIIIIIIIIIIIIAI111IIIIIIIIIIIIIIIIIIIIIAIIIIIIIIIIIIIIAII
IIIIIIIIIIIIIIIIIIIIAIA11111IIIIIIIIIIIIIIIIIIAIIIIIIIIIIIIIIAII
IIIIIIIIIIIIIIIIIIIIIIIIIIIIIIIIIA1II22IIIIIIIIIIIIIIIIIIIIIIIII
IIIIIIIIIIIIIIIIIIIIIIIIIIIIIIIIIA1AI11IIIIIIIIIIIIIIIIIIIIIIIII
IIIIIIIIIIIIIIIIIIIIIIAIIIIIIIIIIIIIIIIIIIIIIIIIIIIIIIIIIIIIIIII
IIIIIIIIIIIIIIIIIIIIIIAIIIIIIIIIIIIIIIIIIIIIIAII111111111IIIIIII
IIIIIIIIIAIIIIIIIIIIIIIIIIIIIIIIIIIIIIIIIIIIIIIIIIIIIIIIIIIIIIII
IIIIIIIIIAIIIIIIIIIIIIIIIIIIIIIIIIIIIIIIIIIIIIIIIIAIIIIIIIIIIIII
IIIIIIIIIIIIIIIIIIIIIIIIIIIIIIIIIIIIIIIIIIIIIIIIIIIIIIIIIIIIIAII
IIIIIIIIIIIIIIIIIIIIIIIIIIIIIIIIIIIIIIIIIIIIIIAIIIIIIIIIIIIIIAII
IIIIIIIIIIIIIIIIIIIIAI11IIIIIIIIIIIIIIIIIIIIIIAIIIIIIIIIIIIIIAII
IIIIIIIIIIIIIIIIIIIIAIA11IIIIIIIIIIIIIIIIIIIIIAIIIIIIIIIIIIIIAII
IIIIIIIIIIIIIIIIIIIIAIA11IIIIIIIIIIIIIIIIIIIIIAIIIIIIIIIIIIIIAAI
IIIIIIIIIIIIIIIIIIIIAIA11IIIIIIIIIIIIIIIIIIIIIAIIIIIIIIIIIIIIAA1
IIIIIIIIIIIIIIIIIIIIIIIIIIIIIIIIIAIIIIIIIIIIIIIIIIIIIIIIIIIIIIII
IIIIIIIIIIIIIIIIIIIIIIIIIIIIIIIIIAIAIIIIIIIIIIIIIIIIIIIIIIIIIIII
IIIIIIIIIIIIIIIIIIIIIIAIIIIIIIIIIIIIIIIIIIIIIIIIIIIIIIIIIIIIIIII
IIIIIIIIIIIIIIIIIIIIIIAIIIIIIIIIIIIIIIIIIIIIIAI11IIIIIIIIIIIIIII
IIIIIIIIIAI11IIIIIIIIIIIIIIIIIIIIIIIIIIIIIIIIIIIIIIIIIIIIIIIIIII
IIIIIIIIIAI11IIIIIIIIIIIIIIIIIIIIIIIIIIIIIIIIIIIIIAIIIIIIIIIIIII
IIIIIIIIIIIIIIIIIIIIIIIIIIIIIIIIIIIIIIIIIIIIIIIIIIIIIIIIIIIIIAI1
IIIIIIIIIIIIIIIIIIIIIIIIIIIIIIIIIIIIIIIIIIIIIIAI11IIIIIIIIIIIAI1
IIIIIIIIIIIIIIIIIIIIIIIIAI11IIIIIIIIIIIIIIIIIIAI11IIIIIIIIIIIAI1
IIIIIIIIIIIIIIIIIIIIIIAIAI11IIIIIIIIIIIIIIIIIIAI11IIIIIIIIIIIAI1
IIIIIIIIIIIIIIIIIIIIIIIIIIIIIIIIIIIA1I1IIIIIIIIIIIIIIIIIIIIIIIII
IIIIIIIIIIIIIIIIIIIIIIIIIIIIIIIIIIIIIIIIIIIAIIIIIIIIIIIIIIIIIIII
IIIIIIIIIIIIIIIIIIIIIIAIIIIIIIIIIIIIIIIIIIIIIIIIIIIIIIIIIIIIIIII
IIIIIIIIIIIIIIIIIIIIIIAIIIIIIIIIIIIIIIIIIIIIIAIIIIIIIIIIIIIIIIII
IIIIIIIIIAI111IIIIIIIIIIIIIIIIIIIIIIIIIIIIIIIIIIIIIIIIIIIIIIIIII
IIIIIIIIIAI111IIIIIIIIIIIIIIIIIIIIIIIIIIIIIIIIIIIIAIIIIIIIIIIIII
IIIIIIIIIIIIIIIIIIIIIIIIIIIIIIIIIIIIIIIIIIIIIIIIIIIIIIIIIIIIIAII
IIIIIIIIIIIIIIIIIIIIIIIIIIIIIIIIIIIIIIIIIIIIIIAI1111IIIIIIIIIAII
IIIIIIIIIIIIIIIIIIIIIIIIIAI11IIIIIIIIIIIIIIIIIAI1111IIIIIIIIIAII
IIIIIIIIIIIIIIIIIIIIIIAI1A1111IIIIIIIIIIIIIIIIAI1111IIIIIIIIIAII
IIIIIIIIIIIIIIIIIIIIIIIIIIIIIIIIIIIIIIIIIIA1I12222IIIIIIIIIIIIII
IIIIIIIIIIIIIIIIIIIIIIIIIIIIIIIIIIIIIIIIIIA1IA2111111IIIIIIIIIII
IIIIIIIIIIIIIIIIIIIIIIAIIIIIIIIIIIIIIIIIIIIIIIIIIIIIIIIIIIIIIIII
IIIIIIIIIIIIIIIIIIIIIIAIIIIIIIIIIIIIIIIIIIIIIIIIIIIIIIIIIIIAII11
IIIIIIIIIAIIIIIIIIIIIIIIIIIIIIIIIIIIIIIIIIIIIIIIIIIIIIIIIIIIIIII
IIIIIIIIIAIIIIIIIIIIIIIIIIIIIIIIIIIIIIIIIIIIIIIIIIAIIIIIIIIIIIII
IIIIIIIIIIIIIIIIIIIIIIIIIIIIIIIIIIIIIIIIIIIIIIIIIIIIIIIIIIIIIAII
IIIIIIIIIIIIIIIIIIIIIIIIIIIIIIIIIIIIIIIIIIIIIIAI11111IIIIIIIIAII
IIIIIIIIIIIIIIIIIIIIIIIIIAIIIIIIIIIIIIIIIIIIIIAI11111IIIIIIIIAII
IIIIIIIIIIIIIIIIIIIIIIAIIAIIIIIIIIIIIIIIIIIIIIAI11111IIIIIIIIAII
IIIIIIIIIIIIIIIIIIIIIIIIIIIIIIIIIIIIIIIIIIIAIIIIIIIIIIIIIIIIIIII
IIIIIIIIIIIIIIIIIIIIIIIIIIIIIIIIIIIIIIIIIIIAIAI1111IIIIIIIIIIIII
IIIIIIIIIIIIIIIIIIIIIIAI11IIIIIIIIIIIIIIIIIIIIIIIIIIIIIIIIIIIIII
IIIIIIIIIIIIIIIIIIIIIIAI11IIIIIIIIIIIIIIIIIIIIIIIIIIIIIIIIIAIIII
IIIIIIIIIAIIIIIIIIIIIIIIIIIIIIIIIIIIIIIIIIIIIIIIIIIIIIIIIIIIIIII
IIIIIIIIIAIIIIIIIIIIIIIIIIIIIIIIIIIIIIIIIIIIIIIIIIAI11IIIIIIIIII
IIIIIIIIIIIIIIIIIIIIIIIIIIIIIIIIIIIIIIIIIIIIIIIIIIIIIIIIIIIIIAII
IIIIIIIIIIIIIIIIIIIIIIIIIIIIIIIIIIIIIIIIIIIIIIAIIIIIIIIIIIIIIAII
IIIIIIIIIIIIIIIIIIIIIIIIIIIIIAI11IIIIIIIIIIIIIAIIIIIIIIIIIIIIAII
IIIIIIIIIIIIIIIIIIIIIIAIIIIIIAI11IIIIIIIIIIIIIAIIIIIIIIIIIIIIAII
IIIIIIIIIIIIIIIIIIIIIIAIIIIIIAI11IIIIIIIIIIIIIAIIIIIIIIIIIIIIAAI
IIIIIIIIIIIIIIIIIIIIIIAIIIIIIAI11IIIIIIIIIIIIIAIIIIIIIIIIIIIIAA1
IIIIIIIIIIIIIIIIIIIIIIIIIIIIIIIIIIIIIIIIIIIAIIIIIIIIIIIIIIIIIIII
IAIIIIIIIIIIIIIIIIIIIIIIIIIIIIIIIIIIIIIIIIIAIIIIIIIIIIIIIIIIIIII
IAIIIIIIIIIIIIIIIIIIIIIIIIIIIIIIIIIIIIIIIIIAIAI1111IIIIIIIIIIIII
IIIIIIIIIIIIIIIIIIIIIIAII1IIIIIIIIIIIIIIIIIIIIIIIIIIIIIIIIIIIIII
IIIIIIIIIIIIIIIIIIIIIIAII1IIIIIIIIIIIIIIIIIIIIIIIIIIIIIIIIIIIAII
IIIIIIIIIAIIIIIIIIIIIIIIIIIIIIIIIIIIIIIIIIIIIIIIIIIIIIIIIIIIIIII
IIIIIIIIIAIIIIIIIIIIIIIIIIIIIIIIIIIIIIIIIIIIIIIIIIAIIIIIIIIIIIII
IIIIIIIIIIIIIIIIIIIIIIIIIIIIIIIIIIIIIIIIIIIIIIIIIIIIIIIIIIIIIAII
IIIIIIIIIIIIIIIIIIIIIIIIIIIIIIIIIIIIIIIIIIIIIIAIIIIIIIIIIIIIIAII
IIIIIIIIIIIIIIIIIIIIIIIIIIIIIIAIIIIIIIIIIIIIIIAIIIIIIIIIIIIIIAII
IIIIIIIIIIIIIIIIIIIIIIAIIIIIIIAIIIIIIIIIIIIIIIAIIIIIIIIIIIIIIAII
IIIIIIIIIIIIIIIIIIIIIIIIIIIIIIIIIIIIIIIIIIIIIIIIIIIIIIIIIIAIIIII
IIIAIIIIIIIIIIIIIIIIIIIIIIIIIIIIIIIIIIIIIIIIIIIIIIIIIIIIIIAIIIII
IIIAIIIIIIIIIIIIIIIIIIIIIIIIIIIIIIIIIIIIIIIIIAI1IIIIIIIIIIAIIIII
IIIIIIIIIIIIIIIIIIIIIIAI11111111IIIIIIIIIIIIIIIIIIIIIIIIIIIIIIII
IIIIIIIIIIIIIIIIIIIIIIAI11111111IIIIIIIIIIIIIIIIIIIIIIIIIIIIIAII
IIIIIIIIIAIIIIIIIIIIIIIIIIIIIIIIIIIIIIIIIIIIIIIIIIIIIIIIIIIIIIII
IIIIIIIIIAIIIIIIIIIIIIIIIIIIIIIIIIIIIIIIIIIIIIIIIIAIIIIIIIIIIIII
IIIIIIIIIIIIIIIIIIIIIIIIIIIIIIIIIIIIIIIIIIIIIIIIIIIIIIIIIIIIIAI1
IIIIIIIIIIIIIIIIIIIIIIIIIIIIIIIIIIIIIIIIIIIIIIAI1111IIIIIIIIIAI1
IIIIIIIIIIIIIIIIIIIIIIIIIIIIIIIIIAIIIIIIIIIIIIIIIIIIIIIIIIIIIIII
IIIIIIIIIIIIIIIIIIIIIIAIIIIIIIIIIAIIIIIIIIIIIIIIIIIIIIIIIIIIIIII
IIIIIIIIIIIIIIIIIIIIIIIIIIIIIIIIIIIIIIIIIIIIIIIIIIIIIIIIIIIIIAII
IIIIAI11IIIIIIIIIIIIIIIIIIIIIIIIIIIIIIIIIIIIIIIIIIIIIIIIIIIIIAII
IIIIAI11IIIIIIIIIIIIIIIIIIIIIIIIIIIIIIIIIIIIIAIIIIIIIIIIIIIIIAII
IIIIIIIIIIIIIIIIIIIIIIAIIIIIIIIIIIIIIIIIIIIIIIIIIIIIIIIIIIIIIIII
IIIIIIIIIAIIIIIIIIIIIIIIIIIIIIIIIIIIIIIIIIIIIIIIIIIIIIIIIIIIIIII
IIIIIIIIIAIIIIIIIIIIIIIIIIIIIIIIIIIIIIIIIIIIIIIIIIAI1IIIIIIIIIII
IIIIIIIIIIIIIIIIIIIIIIIIIIIIIIIIIIIIIIIIIIIIIIIIIIIIIIIIIIIIIAII
IIIIIIIIIIIIIIIIIIIIIIIIIIIIIIIIIIIIIIIIIIIIIIAIIIIIIIIIIIIIIAII
IIIIIIIIIIIIIIIIIIIIIIIIIIIIIIIIIAI11IIIIIIIIIAIIIIIIIIIIIIIIAII
IIIIIIIIIIIIIIIIIIIIIIAI1IIIIIIIIAI11IIIIIIIIIAIIIIIIIIIIIIIIAII
IIIIIIIIIIIIIIIIIIIIIIIIIIIIIIIIIIIIIIIIIIIIIIIIIIIIIIIIIIIIIAII
IIIIAIIIIIIIIIIIIIIIIIIIIIIIIIIIIIIIIIIIIIIIIIIIIIIIIIIIIIIIIAII
IIIIAIIIIIIIIIIIIIIIIIIIIIIIIIIIIIIIIIIIIIIIIAI11IIIIIIIIIIIIAII
IIIIIIIIIIIIIIIIIIIIIIAIIIIIIIIIIIIIIIIIIIIIIIIIIIIIIIIIIIIIIIII
IIIIIIIIIAIIIIIIIIIIIIIIIIIIIIIIIIIIIIIIIIIIIIIIIIIIIIIIIIIIIIII
IIIIIIIIIAIIIIIIIIIIIIIIIIIIIIIIIIIIIIIIIIIIIIIIIIAIIIIIIIIIIIII
IIIIIIIIIIIIIIIIIIIIIIIIIIIIIIIIIIIIIIIIIIIIIIIIIIIIIIIIIIIIIAII
IIIIIIIIIIIIIIIIIIIIIIIIIIIIIIIIIIIIIIIIIIIIIIAIIIIIIIIIIIIIIAII
IIIIIIIIIIIIIIIIIIIIIIIIIIIIIIIIIIIAI1IIIIIIIIAIIIIIIIIIIIIIIAII
IIIIIIIIIIIIIIIIIIIIIIAI11IIIIIIIIIAI1IIIIIIIIAIIIIIIIIIIIIIIAII
IIIIIIIIIIIIIIIIIIIIIIAI11IIIIIIIIIAI1IIIIIIIIAIIIIIIIIIIIIIIAAI
IIIIIIIIIIIIIIIIIIIIIIAI11IIIIIIIIIAI1IIIIIIIIAIIIIIIIIIIIIIIAA1
IIIIIIIIIIIIIIIIIAIIIIIIIIIIIIIIIIIIIIIIIIIIIIIIIIIIIIIIIIIIIIII
IIIIIIIIIIIIIIIIIAIIIIIIIIIIIIIIIIIIIIIIIIIIIAIIIIIIIIIIIIIIIIII
IIIIIIIIIIIIIIIIIIIIIIAIIIIIIIIIIIIIIIIIIIIIIIIIIIIIIIIIIIIIIIII
IIIIIIIIIAI11IIIIIIIIIIIIIIIIIIIIIIIIIIIIIIIIIIIIIIIIIIIIIIIIIII
IIIIIIIIIAI11IIIIIIIIIIIIIIIIIIIIIIIIIIIIIIIIIIIIIAIIIIIIIIIIIII
IIIIIIIIIIIIIIIIIIIIIIIIIIIIIIIIIIIIIIIIIIIIIIIIIIIIIIIIIIIIIAII
IIIIIIIIIIIIIIIIIIIIIIIIIIIIIIIIIIIIIIIIIIIIIIAI1IIIIIIIIIIIIAII
IIIIIIIIIIIIIIIIIIIIIIIIIIIIIIIIIIIIIAIIIIIIIIAI1IIIIIIIIIIIIAII
IIIIIIIIIIIIIIIIIIIIIIAIIIIIIIIIIIIIIAIIIIIIIIAI1IIIIIIIIIIIIAII
IIIIIIIIIIIIIIIIIIIIIIAI11IIIIIIIIIIIIIIIIIIIIIIIIIIIIIIIIIIIIII
IIIIIIIIIIIIIIIIIIIIIIAI11IIIIIIIIIIIIIIIIIIIAI1IIIIIIIIIIIIIIII
IIIIIIIIIIIIIIIIIIIIIIAIIIIIIIIIIIIIIIIIIIIIIIIIIIIIIIIIIIIIIIII
IIIIIIIIIAIIIIIIIIIIIIIIIIIIIIIIIIIIIIIIIIIIIIIIIIIIIIIIIIIIIIII
IIIIIIIIIAIIIIIIIIIIIIIIIIIIIIIIIIIIIIIIIIIIIIIIIIAII11IIIIIIIII
IIIIIIIIIIIIIIIIIIIIIIIIIIIIIIIIIIIIIIIIIIIIIIIIIIIIIIIIIIIIIAII
IIIIIIIIIIIIIIIIIIIIIIIIIIIIIIIIIIIIIIIIIIIIIIAIIIIIIIIIIIIIIAII
IIIIIIIIIIIIIIIIIIIIIIIIIIIIIIIIIIIIIAIIIIIIIIIIIIIIIIIIIIIIIIII
IIIIIIIIIIIIIIIIIIIIIIAIIIIIIIIIIIIIIAIIIIIIIIIIIIIIIIIIIIIIIIII
IIIIIIIIIIIIIIIIIIIIIIAIIIIIIIIIIIIIIAIIIIIIIIIIIIIIIIIIIIAI111I
IIIIIIIIIIIIIIIIIIIIIIAIIIIIIIIIIIIIIAIIIIIIIIIIIIIIIIIIIIAA111I
IIIIIIIIIIIIIIIIIIIIIIAIIIIIIIIIIIIIIAIIIIIIIIIIIIIIIIIIIIAA1111
IIIIIIIIIIIIIIIIIIIIIIIIIIIA2IIIIIIIIIIIIIIIIIIIIIIIIIIIIIIIIIII
IIIIIIIIIIIIIIIIIIIIIIIIIIIA2IIIIIIIIIIIIIIIIAI11IIIIIIIIIIIIIII
IIIIIIIIIIIIIIIIIIIIIIAIIIIIIIIIIIIIIIIIIIIIIIIIIIIIIIIIIIIIIIII
IIIIIIIIIAI1IIIIIIIIIIIIIIIIIIIIIIIIIIIIIIIIIIIIIIIIIIIIIIIIIIII
IIIIIIIIIAI1IIIIIIIIIIIIIIIIIIIIIIIIIIIIIIIIIIIIIIAIIIIIIIIIIIII
IIIIIIIIIIIIIIIIIIIIIIIIIIIIIIIIIIIIIIIIIIIIIIIIIIIIIIIIIIIIIAII
IIIIIIIIIIIIIIIIIIIIIIIIIIIIIIIIIIIIIIIIIIIIIIAI11IIIIIIIIIIIAII
IIIIIIIIIIIIIIIIIIIIIIIIIIIIIIIIIIIIIAIIIIIIIIIIIIIIIIIIIIIIIIII
IIIIIIIIIIIIIIIIIIIIIIAI11IIIIIIIIIIIAIIIIIIIIIIIIIIIIIIIIIIIIII
IIIIIIIIIIIIIIIIIIIIIIIIIIIIIIIIIIIIIA1IIIIIIIIIIIIIIIIIIIIIIIII
IIIIIIIIIIIIIIIIIIIIIIIIIIIIIIIIIIIIIA1IIIIIIAIIIIIIIIIIIIIIIIII
IIIIIIIIIIIIIIIIIIIIIIAII11IIIIIIIIIIIIIIIIIIIIIIIIIIIIIIIIIIIII
IIIIIIIIIAIIIIIIIIIIIIIIIIIIIIIIIIIIIIIIIIIIIIIIIIIIIIIIIIIIIIII
IIIIIIIIIAIIIIIIIIIIIIIIIIIIIIIIIIIIIIIIIIIIIIIIIIAIIIIIIIIIIIII
IIIIIIIIIIIIIIIIIIIIIIIIIIIIIIIIIIIIIIIIIIIIIIIIIIIIIIIIIIIIIAII
IIIIIIIIIIIIIIIIIIIIIIIIIIIIIIIIIIIIIIIIIIIIIIAIIIIIIIIIIIIIIAII
IIIIIIIIIIIIIIIIIIIIIIIIIIIIIIIIIIIIIAIIIIIIIIAIIIIIIIIIIIIIIAII
IIIIIIIIIIIIIIIIIIIIIIAI1IIIIIIIIIIIIAIIIIIIIIAIIIIIIIIIIIIIIAII
IIIIIIIIIIIIIIIIIIIIIIAI1IIIIIIIIIIIIAIIIIIIIIAIIIIIIIIIIIIIIAAI
IIIIIIIIIIIIIIIIIIIIIIAI1IIIIIIIIIIIIAIIIIIIIIAIIIIIIIIIIIIIIAA1
IIIIIIIIIIIIIIIIIIIIIIAI1IIAI111111I1A1IIIIIIIAIIIIIIIIIIIIIIAA1
IIIIIIIIIIIIIIIIIIIIIIIIIIIIIIIIIIIIIIIIIIIAI11IIIIIIIIIIIIIIIII
IIIIIIIIIIIIIIIIIIIIIIIIIIIIIIIIIIIIIIIIIIIAIA11IIIIIIIIIIIIIIII
IIIIIIIIIIIIIIIIIIIIIIAI11IIIIIIIIIIIIIIIIIIIIIIIIIIIIIIIIIIIIII
IIIIIIIIIAIIIIIIIIIIIIIIIIIIIIIIIIIIIIIIIIIIIIIIIIIIIIIIIIIIIIII
IIIIIIIIIAIIIIIIIIIIIIIIIIIIIIIIIIIIIIIIIIIIIIIIIIAII1111IIIIIII
IIIIIIIIIIIIIIIIIIIIIIIIIIIIIIIIIIIIIIIIIIIIIIIIIIIIIIIIIIIIIAII
IIIIIIIIIIIIIIIIIIIIIIIIIIIIIIIIIIIIIIIIIIIIIIAIIIIIIIIIIIIIIAII
IIIIIIIIIIIIIIIIIIIIIIIIIIIIIIIIIIIIIAIIIIIIIIAIIIIIIIIIIIIIIAII
IIIIIIIIIIIIIIIIIIIIIIAI1IIIIIIIIIIIIAIIIIIIIIAIIIIIIIIIIIIIIAII
IIIIIIIIIIIIIIIIIIIIIIIIIIIIIIIIIIIIIIIIIIIIIIIIIIIIIIIIIIIIIAI1
IIIIIIIIIIIIIIIIIIIIIIIIIIIIIIIIIIIIIIIIIIIIIAI1IIIIIIIIIIIIIAI1
IIIIIIIIIIIIIIIIIIIIIIAIIIIIIIIIIIIIIIIIIIIIIIIIIIIIIIIIIIIIIIII
IIIIIIIIIAIIIIIIIIIIIIIIIIIIIIIIIIIIIIIIIIIIIIIIIIIIIIIIIIIIIIII
IIIIIIIIIAIIIIIIIIIIIIIIIIIIIIIIIIIIIIIIIIIIIIIIIIAIIIIIIIIIIIII
IIIIIIIIIIIIIIIIIIIIIIIIIIIIIIIIIIIIIIIIIIIIIIIIIIIIIIIIIIIIIAII
IIIIIIIIIIIIIIIIIIIIIIIIIIIIIIIIIIIIIIIIIIIIIIAIIIIIIIIIIIIIIAII
IIIIIIIIIIIIIIIIIIIIIIIIIIIIIIIIIIIIIAIIIIIIIIAIIIIIIIIIIIIIIAII
IIIIIIIIIIIIIIIIIIIIIIAIIIIIIIIIIIIIIAIIIIIIIIAIIIIIIIIIIIIIIAII
IIIIIIIIIIIIIIIIIIIIIIAIIIIIIIIIIIIIIAIIIIIIIIAIIIIIIIIIIIIIIAAI
IIIIIIIIIIIIIIIIIIIIIIAIIIIIIIIIIIIIIAIIIIIIIIAIIIIIIIIIIIIIIAA1
IIIIIIIIIIIIIIIIIIIIIIIIIIIIIIIIIIIIIIIIIIIIIAIIIIIIIIIIIIIIIIII
IIIIIIIIIIIIIIIIIIIIIIAI1IIIIIIIIIIIIIIIIIIIIIIIIIIIIIIIIIIIIIII
IIIIIIIIIAI1IIIIIIIIIIIIIIIIIIIIIIIIIIIIIIIIIIIIIIIIIIIIIIIIIIII
IIIIIIIIIAI1IIIIIIIIIIIIIIIIIIIIIIIIIIIIIIIIIIIIIIAI11IIIIIIIIII
IIIIIIIIIIIIIIIIIIIIIIIIIIIIIIIIIIIIIIIIIIIIIIIIIIIIIIIIIIIIIAII
IIIIIIIIIIIIIIIIIIIIIIIIIIIIIIIIIIIIIIIIIIIIIIAII11111IIIIIIIAII
IIIIIIIIIIIIIIIIIIIIIIIIIIIIIIIIIIIIIAII1IIIIIAII11111IIIIIIIAII
IIIIIIIIIIIIIIIIIIIIIIAIIIIIIIIIIIIIIAII1IIIIIAII11111IIIIIIIAII
IIIIIIIIIIIIIIIIIIIIIIAIIIIIIIIIIIIIIAII1IIIIIAII11111IIIIIIIAAI
IIIIIIIIIIIIIIIIIIIIIIIIIIIIIIIIIIIIIIIIIIIIIAI11IIIIIIIIIIIIIII
IIIIIIIIIIIIIIIIIIIIIIAII11IIIIIIIIIIIIIIIIIIIIIIIIIIIIIIIIIIIII
IIIIIIIIIAIIIIIIIIIIIIIIIIIIIIIIIIIIIIIIIIIIIIIIIIIIIIIIIIIIIIII
IIIIIIIIIAIIIIIIIIIIIIIIIIIIIIIIIIIIIIIIIIIIIIIIIIAIIIIIIIIIIIII
IIIIIIIIIIIIIIIIIIIIIIIIIIIIIIIIIIIIIIIIIIIIIIIIIIIIIIIIIIIIIAII
IIIIIIIIIIIIIIIIIIIIIIIIIIIIIIIIIIIIIIIIIIIIIIAIIIIIIIIIIIIIIAII
IIIIIIIIIIIIIIIIIIIIIIIIIIIIIIIIIIIIIAIIIIIIIIAIIIIIIIIIIIIIIAII
IIIIIIIIIIIIIIIIIIIIIIAIIIIIIIIIIIIIIAIIIIIIIIAIIIIIIIIIIIIIIAII
IIIIIIIIIIIIIIIIIIIIIIIIIIIIIIIIIIIIIIIIIIIIIAI11IIIIIIIIIIIIIII
IIIIIIIIIIIIIIIIIIIIIIAI111IIIIIIIIIIIIIIIIIIIIIIIIIIIIIIIIIIIII
IIIIIIIIIAIIIIIIIIIIIIIIIIIIIIIIIIIIIIIIIIIIIIIIIIIIIIIIIIIIIIII
IIIIIIIIIAIIIIIIIIIIIIIIIIIIIIIIIIIIIIIIIIIIIIIIIIAIIIIIIIIIIIII
IIIIIIIIIIIIIIIIIIIIIIIIIIIIIIIIIIIIIIIIIIIIIIIIIIIIIIIIIIIIIAII
IIIIIIIIIIIIIIIIIIIIIIIIIIIIIIIIIIIIIIIIIIIIIIAIIIIIIIIIIIIIIAII
IIIIIIIIIIIIIIIIIIIIIIIIIIIIIIIIIIIIIAI11IIIIIAIIIIIIIIIIIIIIAII
IIIIIIIIIIIIIIIIIIIIIIAIIIIIIIIIIIIIIAI11IIIIIAIIIIIIIIIIIIIIAII
IIIIIIIIIIIIIIIIIIIIIIIIIIIIIIIIIIIIIIIIIIIIIAI1IIIIIIIIIIIIIIII
IIIIIIIIIIIIIIIIIIIIIIAI111IIIIIIIIIIIIIIIIIIIIIIIIIIIIIIIIIIIII
IIIIIIIIIAIIIIIIIIIIIIIIIIIIIIIIIIIIIIIIIIIIIIIIIIIIIIIIIIIIIIII
IIIIIIIIIAIIIIIIIIIIIIIIIIIIIIIIIIIIIIIIIIIIIIIIIIAIIIIIIIIIIIII
IIIIIIIIIIIIIIIIIIIIIIIIIIIIIIIIIIIIIIIIIIIIIIIIIIIIIIIIIIIIIAI1
IIIIIIIIIIIIIIIIIIIIIIIIIIIIIIIIIIIIIIIIIIIIIIAI1IIIIIIIIIIIIAI1
IIIIIIIIIIIIIIIIIIIIIIIIIIIIIIIIIIIIIAIIIIIIIIAI1IIIIIIIIIIIIAI1
IIIIIIIIIIIIIIIIIIIIIIAIIIIIIIIIIIIIIAIIIIIIIIAI1IIIIIIIIIIIIAI1
IIIIIIIIIIIIIIIIIIIIIIIIIIIIIIIIIIIIIIIIIIIIIIIIIIIIIIIIIIIIIA1I
IIIIIIIIIIIIIIIIIIIIIIIIIIIIIIIIIIIIIIIIIIIIIIIIIIIIIIIIIIIIIAA1
IIIIIIIIIIIIIIIIIIIIIIIIIIIIIIIIIIIIIA2IIIIIIIIIIIIIIIIIIIIIIAA1
IIIIIIIIIIIIIIIIIIIIIIA2IIIIIIIIIIIIIA2IIIIIIIIIIIIIIIIIIIIIIAA1
IIIIIIIIIIIIIIIIIIIIIIAA2IIIIIIIIIIIIA2IIIIIIIIIIIIIIIIIIIIIIAA1
IIIIIIIIIIIIIIIIIIIIIIAA2IIA2IIIIIIIIA2IIIIIIIIIIIIIIIIIIIIIIAA1
IIIIIIIIIIIIIIIIA2IIIIAA2IIA2IIIIIIIIA2IIIIIIIIIIIIIIIIIIIIIIAA1
IIIIIIIIIIIA2IIIA2IIIIAA2IIA2IIIIIIIIA2IIIIIIIIIIIIIIIIIIIIIIAA1
IIIIIIIIIIIA2IIIA2IIIIAA2IIA2IIIIIIIIA2IIIIIIIIIA1IIIIIIIIIIIAA1
IIIIIIIIIIIA2IIIA2IIIIAA2IIA2IIIIIIIIA2IIIIIIIIIAA1IIIIIIIIIIAA1
IIIIIIIIIIIA2IIIA2IIIIAA2IIA2IIIIA1IIA2IIIIIIIIIAA1IIIIIIIIIIAA1
IIIIIIIIIIIA2IIIA2IIIIAA2IIA2IIIIAA1IA2IIIIIIIIIAA1IIIIIIIIIIAA1
IIIIIIIIIIIA2IIIA2IIIIAA2IIA2IIIIAA1IA2IIIIA1IIIAA1IIIIIIIIIIAA1
IIIIIIIIIIIA2IIIA2IIIIAA2IIA2IIIIAA1IA2IIIIAA1IIAA1IIIIIIIIIIAA1
IIIIIIIIIIIA2IIIA2IIIIAA2IIA2IIIIAA1IA2IIIIAA1IIAA1IIIIIIIIIIAAA
IIIIIIIIIIIA2IIIA2IIIIAA2IIA2IA1IAA1IA2IIIIAA1IIAA1IIIIIIIIIIAAA
IIIIIIIIIIIA2IIIA2IIIIAA2IIA2IAA1AA1IA2IIIIAA1IIAA1IIIIIIIIIIAAA
IIIIIIIIIIIA2IIIA2IIIIAA2IIA2AAA1AA1IA2IIIIAA1IIAA1IIIIIIIIIIAAA
IIIIIIIIIIIA2IIIA2IIA1AA2IIA2AAA1AA1IA2IIIIAA1IIAA1IIIIIIIIIIAAA
IIIIIIIIIIIA2IIIA2IIAAAA2IIA2AAA1AA1IA2IIIIAA1IIAA1IIIIIIIIIIAAA
IIIIIIIIIIIA2IIIA2IIAAAA2IIA2AAA1AA1IA2IIIIAA1IIAA1IIIIIA1IIIAAA
IIIIIIIIIIIA2IIIA2IIAAAA2IIA2AAA1AA1IA2IIIIAA1IIAA1IIIIIAA1IIAAA
IIIIIIIIIIIA2IIIA2IIAAAA2IIA2AAA1AA1IA2IIIIAA1A1AA1IIIIIAA1IIAAA
IIIIIIIIIIIA2IIIA2IIAAAA2IIA2AAA1AA1IA2IIIIAA1AAAA1IIIIIAA1IIAAA
IIIIIIIIIIIA2IIIA2IAAAAA2IIA2AAA1AA1IA2IIIIAA1AAAA1IIIIIAA1IIAAA
IIIIIIIIIIIA2IIIA2IAAAAA2A1A2AAA1AA1IA2IIIIAA1AAAA1IIIIIAA1IIAAA
IIIIIIIIIIIA2IIIA2IAAAAA2AAA2AAA1AA1IA2IIIIAA1AAAA1IIIIIAA1IIAAA
IIIIIIIIIIIA2IIIA2IAAAAA2AAA2AAA1AAA1A2IIIIAA1AAAA1IIIIIAA1IIAAA
IIIIIIIIIIIA2IIIA2IAAAAA2AAA2AAA1AAAAA2IIIIAA1AAAA1IIIIIAA1IIAAA
A1IIIIIIIIIA2IIIA2IAAAAA2AAA2AAA1AAAAA2IIIIAA1AAAA1IIIIIAA1IIAAA
A1IIIIIIIIIA2IIIA2IAAAAA2AAA2AAA1AAAAAA1IIIAA1AAAA1IIIIIAA1IIAAA
A1IIIIIIIIIA2IIIA2IAAAAA2AAA2AAA1AAAAAAA1IIAA1AAAA1IIIIIAA1IIAAA
A1IIIIIIIIIA2IIIA2IAAAAA2AAA2AAA1AAAAAAA1IAAA1AAAA1IIIIIAA1IIAAA
A1IA1I2IIIIA2IIIA2IAAAAA2AAA2AAA1AAAAAAA1IAAA1AAAA1IIIIIAA1IIAAA
A1IA1IA1I2IA2IIIA2IAAAAA2AAA2AAA1AAAAAAA1IAAA1AAAA1IIIIIAA1IIAAA
A1IAA1A1I2IA2IIIA2IAAAAA2AAA2AAA1AAAAAAA1IAAA1AAAA1IIIIIAA1IIAAA
A1IAA1A1IA1A2IIIA2IAAAAA2AAA2AAA1AAAAAAA1IAAA1AAAA1IIIIIAA1IIAAA
A12AA1AA1A1A2IIIA2IAAAAA2AAA2AAA1AAAAAAA1IAAA1AAAA1IIIIIAA1IIAAA
A12AA1AAAA1A2IIIA2IAAAAA2AAA2AAA1AAAAAAA1IAAA1AAAA1IIIIIAA1IIAAA
AA1AA1AAAA1A2IIIA2IAAAAA2AAA2AAA1AAAAAAA1IAAA1AAAA1IIIIIAA1IIAAA
AA1AA1AAAA1A2IIIA2IAAAAA2AAA2AAA1AAAAAAA1IAAA1AAAA1IIIIIAAA12AAA
AA1AA1AAAA1A2IIIA2IAAAAA2AAA2AAA1AAAAAAA1IAAA1AAAA1IIIIAAAA12AAA
AA1AA1AAAA1A2IIIA2IAAAAA2AAA2AAA1AAAAAAA1IAAA1AAAA1A1IIAAAA12AAA
AA1AA1AAAA1A2IIIA2IAAAAA2AAA2AAA1AAAAAAA1IAAA1AAAA1AA1IAAAA12AAA
AA1AA1AAAA1A2IIIA2IAAAAA2AAA2AAA1AAAAAAAA1AAA1AAAA1AA1IAAAA12AAA
AA1AA1AAAA1A2IIIA2IAAAAAAAAA2AAA1AAAAAAAA1AAA1AAAA1AA1IAAAA12AAA
AA1AA1AAAA1A2IIIA2IAAAAAAAAA2AAA1AAAAAAAA1AAA1AAAA1AAA1AAAA12AAA
AA1AA1AAAA1A2IIIA2IAAAAAAAAA2AAAAAAAAAAAA1AAA1AAAA1AAA1AAAA12AAA
AA1AA1AAAA1AA1IIA2IAAAAAAAAA2AAAAAAAAAAAA1AAA1AAAA1AAA1AAAA12AAA
AA1AA1AAAA1AAA1IA1IAAAAAAAAA2AAAAAAAAAAAA1AAA1AAAA1AAA1AAAA12AAA
AA1AA1AAAA1AAAA1A11AAAAAAAAA2AAAAAAAAAAAA1AAA1AAAA1AAA1AAAA12AAA
AA1AA1AAAA1AAAA1AA1AAAAAAAAA2AAAAAAAAAAAA1AAA1AAAA1AAA1AAAA12AAA
AA1AA1AAAA1AAAA1AAAAAAAAAAAA2AAAAAAAAAAAA1AAA1AAAA1AAA1AAAA12AAA
AA1AA1AAAA1AAAA1AAAAAAAAAAAA2AAAAAAAAAAAA1AAA1AAAAAAAA1AAAA12AAA
AA1AA1AAAA1AAAA1AAAAAAAAAAAA2AAAAAAAAAAAA1AAA1AAAAAAAA1AAAAA1AAA
AA1AA1AAAA1AAAA1AAAAAAAAAAAA2AAAAAAAAAAAA1AAA1AAAAAAAA1AAAAAAAAA
AA1AA1AAAAAAAAA1AAAAAAAAAAAA2AAAAAAAAAAAA1AAA1AAAAAAAA1AAAAAAAAA
AA1AAAAAAAAAAAA1AAAAAAAAAAAA2AAAAAAAAAAAA1AAA1AAAAAAAA1AAAAAAAAA
AA1AAAAAAAAAAAA1AAAAAAAAAAAA2AAAAAAAAAAAA1AAAAAAAAAAAA1AAAAAAAAA
IIIIIIIIIIIIIIIIIIIIIIAIIIIIIIIIIIIIIIIIIIIIIIIIIIIIIIIIIIIIIIII
IIIIIIIIIAIIIIIIIIIIIIIIIIIIIIIIIIIIIIIIIIIIIIIIIIIIIIIIIIIIIIII
IIIIIIIIIAIIIIIIIIIIIIIIIIIIIIIIIIIIIIIIIIIIIIIIIIAIIIIIIIIIIIII
IIIIIIIIIIIIIIIIIIIIIIIIIIIIIIIIIIIIIIIIIIIIIIIIIIIIIIIIIIIIIAII
IIIIIIIIIIIIIIIIIIIIIIIIIIIIIIIIIIIIIIIIIIIIIIAIIIIIIIIIIIIIIAII
IIIIIIIIIIIIIIIIIIIIIIIIIIIIIIIIIIIIIAIIIIIIIIAIIIIIIIIIIIIIIAII
IIIIIIIIIIIIIIIIIIIIIIAIIIIIIIIIIIIIIAIIIIIIIIAIIIIIIIIIIIIIIAII
IIIIIIIIIIIIIIIIIIIIIIIIIIIIIIIIIIIIIIIIIIIIIAIIIIIIIIIIIIIIIIII
IIIIIIIIIIIIIIIIIIIIIIAIIIIIIIIIIIIIIIIIIIIIIIIIIIIIIIIIIIIIIIII
IIIIIIIIIAI1111IIIIIIIIIIIIIIIIIIIIIIIIIIIIIIIIIIIIIIIIIIIIIIIII
IIIIIIIIIAI1111IIIIIIIIIIIIIIIIIIIIIIIIIIIIIIIIIIIAIIIIIIIIIIIII
IIIIIIIIIIIIIIIIIIIIIIIIIIIIIIIIIIIIIIIIIIIIIIIIIIIIIIIIIIIIIAII
IIIIIIIIIIIIIIIIIIIIIIIIIIIIIIIIIIIIIIIIIIIIIIAIIIIIIIIIIIIIIAII
IIIIIIIIIIIIIIIIIIIIIIIIIIIIIIIIIIIIIAI111IIIIAIIIIIIIIIIIIIIAII
IIIIIIIIIIIIIIIIIIIIIIAIIIIIIIIIIIIIIAI111IIIIAIIIIIIIIIIIIIIAII
IIIIIIIIIIIIIIIIIIIIIIIIIIIIIIIIIIIIIIIIIIIIIIIIIIIIIIIIIIIAIIII
IIIIIIIIIIIIIIIIIIIIIIIIIIIIIIIIIIIIIIIIIIIIIAIIIIIIIIIIIIIIIIII
IIIIIIIIIIIIIIIIIIIIIIAIIIIIIIIIIIIIIIIIIIIIIIIIIIIIIIIIIIIIIIII
IIIIIIIIIAIIIIIIIIIIIIIIIIIIIIIIIIIIIIIIIIIIIIIIIIIIIIIIIIIIIIII
IIIIIIIIIAIIIIIIIIIIIIIIIIIIIIIIIIIIIIIIIIIIIIIIIIAIIIIIIIIIIIII
IIIIIIIIIIIIIIIIIIIIIIIIIIIIIIIIIIIIIIIIIIIIIIIIIIIIIIIIIIIIIAII
IIIIIIIIIIIIIIIIIIIIIIIIIIIIIIIIIIIIIIIIIIIIIIAIIIIIIIIIIIIIIAII
IIIIIIIIIIIIIIIIIIIIIIIIIIIIIIIIIIIIIAI1IIIIIIAIIIIIIIIIIIIIIAII
IIIIIIIIIIIIIIIIIIIIIIAI11IIIIIIIIIIIAI1IIIIIIAIIIIIIIIIIIIIIAII
IIIIIIIIIIIIIIIIIIIIIIAI11IIIIIIIIIIIAI1IIIIIIAIIIAI1111IIIIIAII
IIIIIIIIIIIIIIIIIIIIIIIIIIIIIIIIIIIIIIIIIIIIIAIIIIIIIIIIIIIIIIII
IIIIIIIIIIIIIIIIIIIIIIAIIIIIIIIIIIIIIIIIIIIIIIIIIIIIIIIIIIIIIIII
IIIIIIIIIAIIIIIIIIIIIIIIIIIIIIIIIIIIIIIIIIIIIIIIIIIIIIIIIIIIIIII
IIIIIIIIIAIIIIIIIIIIIIIIIIIIIIIIIIIIIIIIIIIIIIIIIIAIIIIIIIIIIIII
IIIIIIIIIIIIIIIIIIIIIIIIIIIIIIIIIIIIIIIIIIIIIIIIIIIIIIIIIIIIIAI1
IIIIIIIIIIIIIIIIIIIIIIIIIIIIIIIIIIIIIIIIIIIIIIAI1IIIIIIIIIIIIAI1
IIIIIIIIIIIIIIIIIIIIIIIIIIIIIIIIIIIIIAIIIIIIIIAI1IIIIIIIIIIIIAI1
IIIIIIIIIIIIIIIIIIIIIIAI11IIIIIIIIIIIAIIIIIIIIAI1IIIIIIIIIIIIAI1
IIIIIIIIIIIIIIIIIIIIIIIIIIIIIIIIIIIIIIIIIIIIIA1IIIIIIIIIIIIIIIII
IIIIIIIIIIIIIIIIIIIIIIAIIIIIIIIIIIIIIIIIIIIIIIIIIIIIIIIIIIIIIIII
IIIIIIIIIAIIIIIIIIIIIIIIIIIIIIIIIIIIIIIIIIIIIIIIIIIIIIIIIIIIIIII
IIIIIIIIIAIIIIIIIIIIIIIIIIIIIIIIIIIIIIIIIIIIIIIIIIAIIIIIIIIIIIII
IIIIIIIIIIIIIIIIIIIIIIIIIIIIIIIIIIIIIIIIIIIIIIIIIIIIIIIIIIIIIAI1
IIIIIIIIIIIIIIIIIIIIIIIIIIIIIIIIIIIIIIIIIIIIIIAIIIIIIIIIIIIIIAI1
IIIIIIIIIIIIIIIIIIIIIIIIIIIIIIIIIIIIIAI1IIIIIIAIIIIIIIIIIIIIIAI1
IIIIIIIIIIIIIIIIIIIIIIAIIIIIIIIIIIIIIAI1IIIIIIAIIIIIIIIIIIIIIAI1
IIIIIIIIIIIIIIIIIIIIIIIIIIIIIIIIIIIIIIIIIIIIIIIIIIIIIIIIIIIAIIII
IIIIIIIIIIIIIIIIIIIIIIIIIIIIIIIIIIIIIIIIIIIIIA1IIIIIIIIIIIIIIIII
IIIIIIIIIIIIIIIIIIIIIIAIIIIIIIIIIIIIIIIIIIIIIIIIIIIIIIIIIIIIIIII
IIIIIIIIIAIIIIIIIIIIIIIIIIIIIIIIIIIIIIIIIIIIIIIIIIIIIIIIIIIIIIII
IIIIIIIIIAIIIIIIIIIIIIIIIIIIIIIIIIIIIIIIIIIIIIIIIIAIIIIIIIIIIIII
IIIIIIIIIIIIIIIIIIIIIIIIIIIIIIIIIIIIIIIIIIIIIIIIIIIIIIIIIIIIIAI1
IIIIIIIIIIIIIIIIIIIIIIIIIIIIIIIIIIIIIIIIIIIIIIAIIIIIIIIIIIIIIAI1
IIIIIIIIIIIIIIIIIIIIIIIIIIIIIIIIIIIIIAI111IIIIAIIIIIIIIIIIIIIAI1
IIIIIIIIIIIIIIIIIIIIIIAIIIIIIIIIIIIIIAI111IIIIAIIIIIIIIIIIIIIAI1
IIIIIIIAIIIIIIIIIIIIIIAIIIIIIIIIIIIIIAI111IIIIAIIIIIIIIIIIIIIAI1
IIIIIIIAAIIIIIIIIIIIIIAIIIIIIIIIIIIIIAI111IIIIAIIIIIIIIIIIIIIAI1
IIIIIIIIIIIIIIIIIIIIIIIIIIIIIIIIIIIIIIIIIIIIIAI1IIIIIIIIIIIIIIII
IIIIIIIIIIIIIIIIIIIIIIAIIIIIIIIIIIIIIIIIIIIIIIIIIIIIIIIIIIIIIIII
IIIIIIIIIAI11IIIIIIIIIIIIIIIIIIIIIIIIIIIIIIIIIIIIIIIIIIIIIIIIIII
IIIIIIIIIAI11IIIIIIIIIIIIIIIIIIIIIIIIIIIIIIIIIIIIIAIIIIIIIIIIIII
IIIIIIIIIIIIIIIIIIIIIIIIIIIIIIIIIIIIIIIIIIIIIIIIIIIIIIIIIIIIIAI1
IIIIIIIIIIIIIIIIIIIIIIIIIIIIIIIIIIIIIIIIIIIIIIAI1111IIIIIIIIIAI1
IIIIIIIIIIIIIIIIIIIIIIIIIIIIIIIIIIIIIAI11IIIIIAI1111IIIIIIIIIAI1
IIIIIIIIIIIIIIIIIIIIIIAIIIIIIIIIIIIIIAI11IIIIIAI1111IIIIIIIIIAI1
IIIIIIIIIIIIIIIIIIIIIIIIIIIIIIIIIIIIIIIIIIIIIAI111IIIIIIIIIIIIII
IIIIIIIIIIIIIIIIIIIIIIAIIIIIIIIIIIIIIIIIIIIIIIIIIIIIIIIIIIIIIIII
IIIIIIIIIAIIIIIIIIIIIIIIIIIIIIIIIIIIIIIIIIIIIIIIIIIIIIIIIIIIIIII
IIIIIIIIIAIIIIIIIIIIIIIIIIIIIIIIIIIIIIIIIIIIIIIIIIAIIIIIIIIIIIII
IIIIIIIIIIIIIIIIIIIIIIIIIIIIIIIIIIIIIIIIIIIIIIIIIIIIIIIIIIIIIAII
IIIIIIIIIIIIIIIIIIIIIIIIIIIIIIIIIIIIIIIIIIIIIIAIIIIIIIIIIIIIIAII
IIIIIIIIIIIIIIIIIIIIIIIIIIIIIIIIIIIIIAIIIIIIIIAIIIIIIIIIIIIIIAII
IIIIIIIIIIIIIIIIIIIIIIAIIIIIIIIIIIIIIAIIIIIIIIAIIIIIIIIIIIIIIAII
IIIIIIIIIAI111IIIIIIIIAIIIIIIIIIIIIIIAIIIIIIIIAIIIIIIIIIIIIIIAII
IIIIIIIIIAA111IIIIIIIIAIIIIIIIIIIIIIIAIIIIIIIIAIIIIIIIIIIIIIIAII
IIIIIIIIIAA1111IIIIIIIAIIIIIIIIIIIIIIAIIIIIIIIAIIIIIIIIIIIIIIAII
IIIIIAI11AA1111IIIIIIIAIIIIIIIIIIIIIIAIIIIIIIIAIIIIIIIIIIIIIIAII
IIIIIAA11AA11111IIIIIIAIIIIIIIIIIIIIIAIIIIIIIIAIIIIIIIIIIIIIIAII
IIIIAAA11AA11111IIIIIIAIIIIIIIIIIIIIIAIIIIIIIIAIIIIIIIIIIIIIIAII
IIIIIIIIIIIIIIIIIIIIIIIIIIIIIIIIIIIIIIIIIIIIIA1IIIIIIIIIIIIIIIII
IIIIIIIIIIIIIIIIIIIIIIAIIIIIIIIIIIIIIIIIIIIIIIIIIIIIIIIIIIIIIIII
IIIIIIIIIAIIIIIIIIIIIIIIIIIIIIIIIIIIIIIIIIIIIIIIIIIIIIIIIIIIIIII
IIIIIIIIIAIIIIIIIIIIIIIIIIIIIIIIIIIIIIIIIIIIIIIIIIAIIIIIIIIIIIII
IIIIIIIIIIIIIIIIIIIIIIIIIIIIIIIIIIIIIIIIIIIIIIIIIIIIIIIIIIIIIAII
IIIIIIIIIIIIIIIIIIIIIIIIIIIIIIIIIIIIIIIIIIIIIIAII11IIIIIIIIIIAII
IIIIIIIIIIIIIIIIIIIIIIIIIIIIIIIIIIIIIAII1IIIIIAII11IIIIIIIIIIAII
IIIIIIIIIIIIIIIIIIIIIIAIIIIIIIIIIIIIIAII1IIIIIAII11IIIIIIIIIIAII
IIIIIIIIIIIIIIIIIIIIIIIIIIIIIIIIIIIIIIIIIIIIIAI1IIIIIIIIIIIIIIII
IIIIIIIIIIIIIIIIIIIIIIAIIIIIIIIIIIIIIIIIIIIIIIIIIIIIIIIIIIIIIIII
IIIIIIIIIAIIIIIIIIIIIIIIIIIIIIIIIIIIIIIIIIIIIIIIIIIIIIIIIIIIIIII
IIIIIIIIIAIIIIIIIIIIIIIIIIIIIIIIIIIIIIIIIIIIIIIIIIAIIIIIIIIIIIII
IIIIIIIIIIIIIIIIIIIIIIIIIIIIIIIIIIIIIIIIIIIIIIIIIIIIIIIIIIIIIAI2
IIIIIIIIIIIIIIIIIIIIIIIIIIIIIIIIIIIIIIIIIIIIIIAI1IIIIIIIIIIIIAI2
IIIIIIIIIIIIIIIIIIIIIIIIIIIIIIIIIIIIIAIIIIIIIIAI1IIIIIIIIIIIIAI2
IIIIIIIIIIIIIIIIIIIIIIAIIIIIIIIIIIIIIAIIIIIIIIAI1IIIIIIIIIIIIAI2
IIIIIIAIIIIIIIIIIIIIIIIIIIIIIIIIIIIIIIIIIIIIIIIIIIIIIIIIIIIIIIII
IIIIIIAIIIIIIIIIIIIIIIIIIIIIIIIIIIIIIIIIIIIIIAIIIIIIIIIIIIIIIIII
IIIIIIIIIIIIIIIIIIIIIIAIIIIIIIIIIIIIIIIIIIIIIIIIIIIIIIIIIIIIIIII
IIIIIIIIIAIIIIIIIIIIIIIIIIIIIIIIIIIIIIIIIIIIIIIIIIIIIIIIIIIIIIII
IIIIIIIIIAIIIIIIIIIIIIIIIIIIIIIIIIIIIIIIIIIIIIIIIIAIIIIIIIIIIIII
IIIIIIIIIIIIIIIIIIIIIIIIIIIIIIIIIIIIIIIIIIIIIIIIIIIIIIIIIIIIIAI1
IIIIIIIIIIIIIIIIIIIIIIIIIIIIIIIIIIIIIIIIIIIIIIAIIIIIIIIIIIIIIAI1
IIIIIIIIIIIIIIIIIIIIIIIIIIIIIIIIIIIIIAIIIIIIIIAIIIIIIIIIIIIIIAI1
IIIIIIIIIIIIIIIIIIIIIIAIIIIIIIIIIIIIIAIIIIIIIIAIIIIIIIIIIIIIIAI1
IIIIIIIIIAIIIIIIIIIIIIIIIIIIIIIIIIIIIIIIIIIIIIIIIIIIIIIIIIIIIIII
IIIIIIIIIAIIIIIIIIIIIIIIIIIIIIIIIIIIIIIIIIIIIAIIIIIIIIIIIIIIIIII
IIIIIIIIIIIIIIIIIIIIIIAIIIIIIIIIIIIIIIIIIIIIIIIIIIIIIIIIIIIIIIII
IIIIIIIIIAI111IIIIIIIIAIIIIIIIIIIIIIIIIIIIIIIIIIIIIIIIIIIIIIIIII
IIIIIIIIIAI111IIIIIIIIAIIIIIIIIIIIIIIIIIIIIIIIIIIIAI11IIIIIIIIII
IIIIIIIIIIIIIIIIIIIIIIIIIIIIIIIIIIIIIIIIIIIIIIIIIIIIIIIIIIIIIAII
IIIIIIIIIIIIIIIIIIIIIIIIIIIIIIIIIIIIIIIIIIIIIIAI1111IIIIIIIIIAII
IIIIIIIIIIIIIIIIIIIIIIIIIIIIIIIIIIIIIAIIIIIIIIAI1111IIIIIIIIIAII
IIIIIIIIIIIIIIIIIIIIIIAI1IIIIIIIIIIIIAIIIIIIIIAI1111IIIIIIIIIAII
IIIIIIIIIIIAIIIIIIIIIIIIIIIIIIIIIIIIIIIIIIIIIIIIIIIIIIIIIIIIIIII
IIIIIIIIIIIAIIIIIIIIIIIIIIIIIIIIIIIIIIIIIIIIIAIIIIIIIIIIIIIIIIII
IIIIIIIIIIIIIIIIIIIIIIAIIIIIIIIIIIIIIIIIIIIIIIIIIIIIIIIIIIIIIIII
IIIIIIIIIAIIIIIIIIIIIIAIIIIIIIIIIIIIIIIIIIIIIIIIIIIIIIIIIIIIIIII
IIIIIIIIIAIIIIIIIIIIIIAIIIIIIIIIIIIIIIIIIIIIIIIIIIAII1111IIIIIII
IIIIIIIIIIIIIIIIIIIIIIIIIIIIIIIIIIIIIIIIIIIIIIIIIIIIIIIIIIIIIAI1
IIIIIIIIIIIIIIIIIIIIIIIIIIIIIIIIIIIIIIIIIIIIIIAI11IIIIIIIIIIIAI1
IIIIIIIIIIIIIIIIIIIIIIIIIIIIIIIIIIIIIAI1111IIIAI11IIIIIIIIIIIAI1
IIIIIIIIIIIIIIIIIIIIIIAIIIIIIIIIIIIIIAI1111IIIAI11IIIIIIIIIIIAI1
IIIIIIIIIIIIIIIIIIIIIIAIIIIIIIIIIIIIIIIIIIIIIIIIIIIIIIIIIIIIIIII
IIIIIIIIIIIIIIIIIIIIIIAIIIIIIIIIIIIIIIIIIIIIIAIIIIIIIIIIIIIIIIII
IIIIA1I111IIIIIIIIIIIIAIIIIIIIIIIIIIIIIIIIIIIAIIIIIIIIIIIIIIIIII
IIIIIIIIIIIIIIIIIIIIIIAI111IIIIIIIIIIIIIIIIIIIIIIIIIIIIIIIIIIIII
IIIIIIIIIAIIIIIIIIIIIIIIIIIIIIIIIIIIIIIIIIIIIIIIIIIIIIIIIIIIIIII
IIIIIIIIIAIIIIIIIIIIIIIIIIIIIIIIIIIIIIIIIIIIIIIIIIAII11IIIIIIIII
IIIIIIIIIIIIIIIIIIIIIIIIIIIIIIIIIIIIIIIIIIIIIIIIIIIIIIIIIIIIIAII
IIIIIIIIIIIIIIIIIIIIIIIIIIIIIIIIIIIIIIIIIIIIIIAI1IIIIIIIIIIIIAII
IIIIIIIIIIIIIIIIIIIIIIIIIIIIIIIIIIIIIAI11IIIIIAI1IIIIIIIIIIIIAII
IIIIIIIIIIIIIIIIIIIIIIAI111IIIIIIIIIIAI11IIIIIAI1IIIIIIIIIIIIAII
IIIIIIIIIIIIIIIIIIIIIIIIIIIAI1IIIIIIIIIIIIIIIIIIIIIIIIIIIIIIIIII
IIIIIIIIIIIIIIIIIIIIIIIIIIIAI1IIIIIIIIIIIIIIIAI11IIIIIIIIIIIIIII
IIIIIIIIIIIIIIAIIIIIIIIIIIIAI1IIIIIIIIIIIIIIIAI11IIIIIIIIIIIIIII
IIIIIIIIIIIIIIIIIIIIIIAI11IIIIIIIIIIIIIIIIIIIIIIIIIIIIIIIIIIIIII
IIIIIIIIIAIIIIIIIIIIIIIIIIIIIIIIIIIIIIIIIIIIIIIIIIIIIIIIIIIIIIII
IIIIIIIIIAIIIIIIIIIIIIIIIIIIIIIIIIIIIIIIIIIIIIIIIIAIIIIIIIIIIIII
IIIIIIIIIIIIIIIIIIIIIIIIIIIIIIIIIIIIIIIIIIIIIIIIIIIIIIIIIIIIIAII
IIIIIIIIIIIIIIIIIIIIIIIIIIIIIIIIIIIIIIIIIIIIIIAIIIIIIIIIIIIIIAII
IIIIIIIIIIIIIIIIIIIIIIIIIIIIIIIIIIIIIAIIIIIIIIAIIIIIIIIIIIIIIAII
IIIIIIIIIIIIIIIIIIIIIIAII1111IIIIIIIIAIIIIIIIIAIIIIIIIIIIIIIIAII
IIIIIIIIIIIIIIIIIIIIIIIIIIIIIAIIIIIIIIIIIIIIIIIIIIIIIIIIIIIIIIII
IIIIIIIIIIIIIIIIIIIIIIIIIIIIIAIIIIIIIIIIIIIIIAIIIIIIIIIIIIIIIIII
IIIIIIIIIIIIIIIIIIIIIIIIIA1I1A1IIIIIIIIIIIIIIAIIIIIIIIIIIIIIIIII
IIIIIIIIIIIIIIIIIIIIIIAIIIIIIIIIIIIIIIIIIIIIIIIIIIIIIIIIIIIIIIII
IIIIIIIIIAIIIIIIIIIIIIIIIIIIIIIIIIIIIIIIIIIIIIIIIIIIIIIIIIIIIIII
IIIIIIIIIAIIIIIIIIIIIIIIIIIIIIIIIIIIIIIIIIIIIIIIIIAIIIIIIIIIIIII
IIIIIIIIIIIIIIIIIIIIIIIIIIIIIIIIIIIIIIIIIIIIIIIIIIIIIIIIIIIIIAII
IIIIIIIIIIIIIIIIIIIIIIIIIIIIIIIIIIIIIIIIIIIIIIAI1IIIIIIIIIIIIAII
IIIIIIIIIIIIIIIIIIIIIIIIIIIIIIIIIIIIIAI11IIIIIAI1IIIIIIIIIIIIAII
IIIIIIIIIIIIIIIIIIIIIIAIIIIIIIIIIIIIIAI11IIIIIAI1IIIIIIIIIIIIAII
IIIIIIIIIIIIIIIIIIIIIIIIIIIIIAIIIIIIIIIIIIIIIIIIIIIIIIIIIIIIIIII
IIIIIIIIIIIIIIIIIIIIIIIIIIIIIAIIIIIIIIIIIIIIIAI1111IIIIIIIIIIIII
IIIIIIIIIIIIIIIIIIIIIIIIIAI11AIIIIIIIIIIIIIIIAI1111IIIIIIIIIIIII
IIIIIIIIIIIIIIIIIIIIIIAIIIIIIIIIIIIIIIIIIIIIIIIIIIIIIIIIIIIIIIII
IIIIIIIIIAIIIIIIIIIIIIIIIIIIIIIIIIIIIIIIIIIIIIIIIIIIIIIIIIIIIIII
IIIIIIIIIAIIIIIIIIIIIIIIIIIIIIIIIIIIIIIIIIIIIIIIIIAIIIIIIIIIIIII
IIIIIIIIIIIIIIIIIIIIIIIIIIIIIIIIIIIIIIIIIIIIIIIIIIIIIIIIIIIIIAI1
IIIIIIIIIIIIIIIIIIIIIIIIIIIIIIIIIIIIIIIIIIIIIIAIIIIIIIIIIIIIIAI1
IIIIIIIIIIIIIIIIIIIIIIIIIIIIIIIIIIIIIAIIIIIIIIAIIIIIIIIIIIIIIAI1
IIIIIIIIIIIIIIIIIIIIIIAIIIIIIIIIIIIIIAIIIIIIIIAIIIIIIIIIIIIIIAI1
IIIIIIIIIIIIIIIIIIIIIIIIIIIIIIIIIA1I1IIIIIIIIIIIIIIIIIIIIIIIIIII
IIIIIIIIIIIIIIIIIIIIIIIIIIIIIIIIIA1I1IIIIIIIIAIIIIIIIIIIIIIIIIII
IIIIIIIIIIIIIIIIIIIIIIIIIAIIIIIIIA1I1IIIIIIIIAIIIIIIIIIIIIIIIIII
IIIIIIIIIIIIIIIIIIIIIIAIIIIIIIIIIIIIIIIIIIIIIIIIIIIIIIIIIIIIIIII
IIIIIIIIIAI1IIIIIIIIIIIIIIIIIIIIIIIIIIIIIIIIIIIIIIIIIIIIIIIIIIII
IIIIIIIIIAI1IIIIIIIIIIIIIIIIIIIIIIIIIIIIIIIIIIIIIIAIIIIIIIIIIIII
IIIIIIIIIIIIIIIIIIIIIIIIIIIIIIIIIIIIIIIIIIIIIIIIIIIIIIIIIIIIIAII
IIIIIIIIIIIIIIIIIIIIIIIIIIIIIIIIIIIIIIIIIIIIIIAIIIIIIIIIIIIIIAII
IIIIIIIIIIIIIIIIIIIIIIIIIIIIIIIIIIIIIAII111111A111IIIIIIIIIIIAII
IIIIIIIIIIIIIIIIIIIIIIAII1IIIIIIIIIIIAII111111A111IIIIIIIIIIIAII
IIIIIIIIIIIIIIIIIIIIIIIIIIIIIIIIIIIIIIIIA2IIIIIIIIIIIIIIIIIIIIII
IIIIIIIIIIIIIIIIIIIIIIIIIIIIIIIIIIIIIIIIA2IIIIIIIIAI1IIIIIIIIIII
IIIIIIIIIIIIIIIIIIIIIIIIIAIIIIIIIIIIIIIIA2IIIIIIIIAI1IIIIIIIIIII
IIIIIIIIIIIIIIIIIIIIIIAIIIIIIIIIIIIIIIIIIIIIIIIIIIIIIIIIIIIIIIII
IIIIIIIIIAI1IIIIIIIIIIIIIIIIIIIIIIIIIIIIIIIIIIIIIIIIIIIIIIIIIIII
IIIIIIIIIAI1IIIIIIIIIIIIIIIIIIIIIIIIIIIIIIIIIIIIIIAIIIIIIIIIIIII
IIIIIIIIIIIIIIIIIIIIIIIIIIIIIIIIIIIIIIIIIIIIIIIIIIIIIIIIIIIIIAII
IIIIIIIIIIIIIIIIIIIIIIIIIIIIIIIIIIIIIIIIIIIIIIAIIIIIIIIIIIIIIAII
IIIIIIIIIIIIIIIIIIIIIIIIIIIIIIIIIIIIIAIIIIIIIIAIIIIIIIIIIIIIIAII
IIIIIIIIIIIIIIIIIIIIIIAI1IIIIIIIIIIIIAIIIIIIIIAIIIIIIIIIIIIIIAII
IIIIIIIIIAI1111IIIIIIIAI1IIIIIIIIIIIIAIIIIIIIIAIIIIIIIIIIIIIIAII
IIIIIIIIIAA1111IIIIIIIAI1IIIIIIIIIIIIAIIIIIIIIAIIIIIIIIIIIIIIAII
IIIIIIIIIAA11111IIIIIIAI1IIIIIIIIIIIIAIIIIIIIIAIIIIIIIIIIIIIIAII
IIIIIAI11AA11111IIIIIIAI1IIIIIIIIIIIIAIIIIIIIIAIIIIIIIIIIIIIIAII
IIIIIAA11AA111111IIIIIAI1IIIIIIIIIIIIAIIIIIIIIAIIIIIIIIIIIIIIAII
IIIIAAA11AA111111IIIIIAI1IIIIIIIIIIIIAIIIIIIIIAIIIIIIIIIIIIIIAII
IIIIAAA11AA11111111IIIAI1IIIIIIIIIIIIAIIIIIIIIAIIIIIIIIIIIIIIAII
IIIIIIIIIIIIIIIIIIIIIIIIIIIIIIIIIIIIIIIIIIIIIIIIIIAIIIIIIIIIIIII
IIIIIIIIIIIIIIIIIIIIIIIIIIIIIIIIIIIIIIIIIIIIIIIIIIAIIAI11111IIII
IIIIIIIIIIIIIIIIIIIIIIIIIAI1IIIIIIIIIIIIIIIIIIIIIIAIIAI11111IIII
IIIIIIIIIIIIIIIIIIIIIIAI1IIIIIIIIIIIIIIIIIIIIIIIIIIIIIIIIIIIIIII
IIIIIIIIIAIIIIIIIIIIIIIIIIIIIIIIIIIIIIIIIIIIIIIIIIIIIIIIIIIIIIII
IIIIIIIIIAIIIIIIIIIIIIIIIIIIIIIIIIIIIIIIIIIIIIIIIIAIIIIIIIIIIIII
IIIIIIIIIIIIIIIIIIIIIIIIIIIIIIIIIIIIIIIIIIIIIIIIIIIIIIIIIIIIIAII
IIIIIIIIIIIIIIIIIIIIIIIIIIIIIIIIIIIIIIIIIIIIIIAII111IIIIIIIIIAII
IIIIIIIIIIIIIIIIIIIIIIIIIIIIIIIIIIIIIAII11IIIIAII111IIIIIIIIIAII
IIIIIIIIIIIIIIIIIIIIIIAII1IIIIIIIIIIIAII11IIIIAII111IIIIIIIIIAII
IIIIIIIIIIIIIIIIIIIIIIIIIIIIIIIIIIIIIIIIIIIIIIIIIIAI1IIIIIIIIIII
IIIIIIIIIIIIIIIIIIIIIIIIIIIIIIIIIIIIIIIIIIIIIIIIIIAI1IIIIIAIIIII
IIIIIIIIIIIIIIIIIIIIIIIIIAIIIIIIIIIIIIIIIIIIIIIIIIAI1IIIIIAIIIII
IIIIIIIIIIIIIIIIIIIIIIAIIIIIIIIIIIIIIIIIIIIIIIIIIIIIIIIIIIIIIIII
IIIIIIIIIAIIIIIIIIIIIIIIIIIIIIIIIIIIIIIIIIIIIIIIIIIIIIIIIIIIIIII
IIIIIIIIIAIIIIIIIIIIIIIIIIIIIIIIIIIIIIIIIIIIIIIIIIAIIIIIIIIIIIII
IIIIIIIIIIIIIIIIIIIIIIIIIIIIIIIIIIIIIIIIIIIIIIIIIIIIIIIIIIIIIAII
IIIIIIIIIIIIIIIIIIIIIIIIIIIIIIIIIIIIIIIIIIIIIIAI1IIIIIIIIIIIIAII
IIIIIIIIIIIIIIIIIIIIIIIIIIIIIIIIIIIIIAIIIIIIIIAI1IIIIIIIIIIIIAII
IIIIIIIIIIIIIIIIIIIIIIAIIIIIIIIIIIIIIAIIIIIIIIAI1IIIIIIIIIIIIAII
IIIIIIIIIIIIIIIIIIIIIIIIIIIIIIIIIIIIIIIIIIIIIIIIIIIIIA1IIIIIIIII
IIIIIIIIIIIIIIIIIIIIIIIIIIIIIIIIIIIIIIIIIIIIIIIIIIIIIA1IIIIAIIII
IIIIIIIIIIIIIIIIIIIIIIIIIAIIIIIIIIIIIIIIIIIIIIIIIIIIIA1IIIIAIIII
IIIIIIIIIIIIIIIIIIIIIIAIIIIIIIIIIIIIIIIIIIIIIIIIIIIIIIIIIIIIIIII
IIIIIIIIIAII1IIIIIIIIIIIIIIIIIIIIIIIIIIIIIIIIIIIIIIIIIIIIIIIIIII
IIIIIIIIIAII1IIIIIIIIIIIIIIIIIIIIIIIIIIIIIIIIIIIIIAIIIIIIIIIIIII
IIIIIIIIIIIIIIIIIIIIIIIIIIIIIIIIIIIIIIIIIIIIIIIIIIIIIIIIIIIIIAI1
IIIIIIIIIIIIIIIIIIIIIIIIIIIIIIIIIIIIIIIIIIIIIIAI1111IIIIIIIIIAI1
IIIIIIIIIIIIIIIIIIIIIIIIIIIIIIIIIIIIIAIIIIIIIIAI1111IIIIIIIIIAI1
IIIIIIIIIIIIIIIIIIIIIIAIIIIIIIIIIIIIIAIIIIIIIIAI1111IIIIIIIIIAI1
IIIIIIIIIIIIIIIIIIIIIIIIIIIIIIIIIIIIIIIIIIIIIIIIIIIIIA1IIIIIIIII
IIIIIIIIIIIIIIIIIIIIIIIIIIIIIIIIIIIIIIIIIIIIIIIIIIIIIA1IIIIIIAII
IIIIIIIIIIIIIIIIIIIIIIIIIAIIIIIIIIIIIIIIIIIIIIIIIIIIIA1IIIIIIAII
IIIIIIIIIIIIIIIIIIIIIIAIIIIIIIIIIIIIIIIIIIIIIIIIIIIIIIIIIIIIIIII
IIIIIIIIIAIIIIIIIIIIIIIIIIIIIIIIIIIIIIIIIIIIIIIIIIIIIIIIIIIIIIII
IIIIIIIIIAIIIIIIIIIIIIIIIIIIIIIIIIIIIIIIIIIIIIIIIIAIIIIIIIIIIIII
IIIIIIIIIIIIIIIIIIIIIIIIIIIIIIIIIIIIIIIIIIIIIIIIIIIIIIIIIIIIIAII
IIIIIIIIIIIIIIIIIIIIIIIIIIIIIIIIIIIIIIIIIIIIIIAIIIIIIIIIIIIIIAII
IIIIIIIIIIIIIIIIIIIIIIIIIIIIIIIIIIIIIAIIIIIIIIAIIIIIIIIIIIIIIAII
IIIIIIIIIIIIIIIIIIIIIIAIIIIIIIIIIIIIIAIIIIIIIIAIIIIIIIIIIIIIIAII
IIIIIIIIIAIIIIIIIIIIIIAIIIIIIIIIIIIIIAIIIIIIIIAIIIIIIIIIIIIIIAII
IIIIIIIIIAAIIIIIIIIIIIAIIIIIIIIIIIIIIAIIIIIIIIAIIIIIIIIIIIIIIAII
IIIIIAIIIAAIIIIIIIIIIIAIIIIIIIIIIIIIIAIIIIIIIIAIIIIIIIIIIIIIIAII
IIIIIAAIIAAIIIIIIIIIIIAIIIIIIIIIIIIIIAIIIIIIIIAIIIIIIIIIIIIIIAII
IIIIAAAIIAAIIIIIIIIIIIAIIIIIIIIIIIIIIAIIIIIIIIAIIIIIIIIIIIIIIAII
IIIIIIIIIIIIIIIIIIIIIIIIIIIIIIIIIIIIIIIIIIIIIIIIIIIIIIIIA1IIIIII
IIIIIIIIIIIIIIIIIIIIIIIIIIIIIIIIIIIIIIIIIIIIIIIIIIIIIIIIA1IIIAI1
IIIIIIIIIIIIIIIIIIIIIIIIIAI1111IIIIIIIIIIIIIIIIIIIIIIIIIA1IIIAI1
IIIIIIIIIIIIIIIIIIIIIIAIIIIIIIIIIIIIIIIIIIIIIIIIIIIIIIIIIIIIIIII
IIIIIIIIIAII1IIIIIIIIIIIIIIIIIIIIIIIIIIIIIIIIIIIIIIIIIIIIIIIIIII
IIIIIIIIIAII1IIIIIIIIIIIIIIIIIIIIIIIIIIIIIIIIIIIIIAIIIIIIIIIIIII
IIIIIIIIIIIIIIIIIIIIIIIIIIIIIIIIIIIIIIIIIIIIIIIIIIIIIIIIIIIIIAI1
IIIIIIIIIIIIIIIIIIIIIIIIIIIIIIIIIIIIIIIIIIIIIIAIIIIIIIIIIIIIIAI1
IIIIIIIIIIIIIIIIIIIIIIIIIIIIIIIIIIIIIAI111IIIIAIIIIIIIIIIIIIIAI1
IIIIIIIIIIIIIIIIIIIIIIAI1111IIIIIIIIIAI111IIIIAIIIIIIIIIIIIIIAI1
IIIIIIIIIIIIIIIIIIIIIIAI1111IIIIIIIIIAI111IIIIAIIIIIIIIIIIAIIAI1
IIIIIIIIIIIIIIIIIIIIIIAI1111IIIIIIIIIAI111IIIIAIIIIIIIIIIIAAIAI1
IA1IIIIIIIIIIIIIIIIIIIAI1111IIIIIIIIIAI111IIIIAIIIIIIIIIIIAAIAI1
IA1IIIIIIIIIIIIIIIIIIIAI1A1111111IIIIAI111IIIIAIIIIIIIIIIIAAIAI1
IIIIIIIIIIIIIIIIIIIIIIAIIIIIIIIIIIIIIIIIIIIIIIIIIIIIIIIIIIIIIIII
IIIIIIIIIAIIIIIIIIIIIIIIIIIIIIIIIIIIIIIIIIIIIIIIIIIIIIIIIIIIIIII
IIIIIIIIIAIIIIIIIIIIIIIIIIIIIIIIIIIIIIIIIIIIIIIIIIAIIIIIIIIIIIII
IIIIIIIIIIIIIIIIIIIIIIIIIIIIIIIIIIIIIIIIIIIIIIIIIIIIIIIIIIIIIAII
IIIIIIIIIIIIIIIIIIIIIIIIIIIIIIIIIIIIIIIIIIIIIIAIIIIIIIIIIIIIIAII
IIIIIIIIIIIIIIIIIIIIIIIIIIIIIIIIIIIIIAIIIIIIIIAIIIIIIIIIIIIIIAII
IIIIIIIIIIIIIIIIIIIIIIAIIIIIIIIIIIIIIAIIIIIIIIAIIIIIIIIIIIIIIAII
IIIAIIIIIIIIIIIIIIIIIIIIIIIIIIIIIIIIIIIIIIIIIIIIIIIIIIIIIIIIIIII
IIIAIIIIIIIIIIIIIIIIIIIIIIIIIIIIIIIIIIIIIIIIIIIIIIIIIIIIIIAI1III
IIIIIIIIIIIIIIIIIIIIIIIIIIIIIIIIIAIIIIIIIIIIIIIIIIIIIIIIIIIIIIII
IIIIIIIIIIIIIIIIIIIIIIAIIIIIIIIIIIIIIIIIIIIIIIIIIIIIIIIIIIIIIIII
IIIIIIIIIAIIIIIIIIIIIIIIIIIIIIIIIIIIIIIIIIIIIIIIIIIIIIIIIIIIIIII
IIIIIIIIIAIIIIIIIIIIIIIIIIIIIIIIIIIIIIIIIIIIIIIIIIAIIIIIIIIIIIII
IIIIIIIIIIIIIIIIIIIIIIIIIIIIIIIIIIIIIIIIIIIIIIIIIIIIIIIIIIIIIAII
IIIIIIIIIIIIIIIIIIIIIIIIIIIIIIIIIIIIIIIIIIIIIIAIIIIIIIIIIIIIIAII
IIIIIIIIIIIIIIIIIIIIIIIIIIIIIIIIIIIIIAIIIIIIIIAIIIIIIIIIIIIIIAII
IIIIIIIIIIIIIIIIIIIIIIAIIIIIIIIIIIIIIAIIIIIIIIAIIIIIIIIIIIIIIAII
IIIIIIIIIIIIIIIIIIIIIIAIIIIIIIIIIIIIIAIIIIIIIIAIAIIIIIIIIIIIIAII
IIIIIIIIIIIIIIIIIIIIIIAIIIIIIIIIIIIIIAIIIIIIIIAAAIIIIIIIIIIIIAII
IIIIIIIIIIIIIIIIIIIIIIAIIIIIIIIIIIIIIAIIIIIIIIAAA1IIIIIIIIIIIAII
IIIIIIIIIIIIIIIIIIIIIIAIIIIIIIIIIIIIIAIIIIIIIIAAA11111IIIIIIIAII
IIIIIIIIIIIIIIIIIIIIIIAIIIIIIIIIIIIIIAIIIIIIIIAAA1111111IIIIIAII
IIIIIIIIIAI111IIIIIIIIAIIIIIIIIIIIIIIAIIIIIIIIAAA1111111IIIIIAII
IIIIIIIIIAI111IIIIIIIIAIIIIIIIIIIIIIIAIIIIIIIIAAA1111111IIIIIAIA
IIIIIIIIIIIIIIIIIIIIIIAI1IIIIIIIIIIIIIIIIIIIIIIIIIIIIIIIIIIIIIII
IIIIIIIIIAI1IIIIIIIIIIIIIIIIIIIIIIIIIIIIIIIIIIIIIIIIIIIIIIIIIIII
IIIIIIIIIAI1IIIIIIIIIIIIIIIIIIIIIIIIIIIIIIIIIIIIIIAIIIIIIIIIIIII
IIIIIIIIIIIIIIIIIIIIIIIIIIIIIIIIIIIIIIIIIIIIIIIIIIIIIIIIIIIIIAII
IIIIIIIIIIIIIIIIIIIIIIIIIIIIIIIIIIIIIIIIIIIIIIAIIIIIIIIIIIIIIAII
IIIIIIIIIIIIIIIIIIIIIIIIIIIIIIIIIIIIIAI1IIIIIIAIIIIIIIIIIIIIIAII
IIIIIIIIIIIIIIIIIIIIIIAIIIIIIIIIIIIIIAI1IIIIIIAIIIIIIIIIIIIIIAII
IIIIIIIIIIIAIIIIIIIIIIIIIIIIIIIIIIIIIIIIIIIIIIIIIIIIIIIIIIIIIIII
IIIIIIIIIIIAIIIIIIIIIIIIIIIIIIIIIIIIIIIIIIIAIIIIIIIIIIIIIIIIIIII
IIIIIIIIIIIIIIIIIIIIIIAI1111IIIIIIIIIIIIIIIIIIIIIIIIIIIIIIIIIIII
IIIIIIIIIAIIIIIIIIIIIIIIIIIIIIIIIIIIIIIIIIIIIIIIIIIIIIIIIIIIIIII
IIIIIIIIIAIIIIIIIIIIIIIIIIIIIIIIIIIIIIIIIIIIIIIIIIAIIIIIIIIIIIII
IIIIIIIIIIIIIIIIIIIIIIIIIIIIIIIIIIIIIIIIIIIIIIIIIIIIIIIIIIIIIAII
IIIIIIIIIIIIIIIIIIIIIIIIIIIIIIIIIIIIIIIIIIIIIIAIIIIIIIIIIIIIIAII
IIIIIIIIIIIIIIIIIIIIIIIIIIIIIIIIIIIIIAI11IIIIIAIIIIIIIIIIIIIIAII
IIIIIIIIIIIIIIIIIIIIIIAI11IIIIIIIIIIIAI11IIIIIAIIIIIIIIIIIIIIAII
IIIIIIIIIAI11IIIIIIIIIAI11IIIIIIIIIIIAI11IIIIIAIIIIIIIIIIIIIIAII
IIIIIIIIIAA11IIIIIIIIIAI11IIIIIIIIIIIAI11IIIIIAIIIIIIIIIIIIIIAII
IIIIIIIIIAA111IIIIIIIIAI11IIIIIIIIIIIAI11IIIIIAIIIIIIIIIIIIIIAII
IIIIIAI11AA1111IIIIIIIAI11IIIIIIIIIIIAI11IIIIIAIIIIIIIIIIIIIIAII
IIIIAA111AA11111IIIIIIAI11IIIIIIIIIIIAI11IIIIIAIIIIIIIIIIIIIIAII
IIIIAA111AA111111IIIIIAI11IIIIIIIIIIIAI11IIIIIAIIIIIIIIIIIIIIAII
IIIIAAA11AA1111111IIIIAI11IIIIIIIIIIIAI11IIIIIAIIIIIIIIIIIIIIAII
IIIIAAA11AA11111A1IIIIAI11IIIIIIIIIIIAI11IIIIIAIIIIIIIIIIIIIIAII
IIIIIIIIIIIIIIIIIIIIIIIIIIIIIIIIIIIIIIIIIIIIIA1I11IIIIIIIIIIIIII
IIIIIIIIIIIIIIIIIIIIIIAIIIIIIIIIIIIIIIIIIIIIIIIIIIIIIIIIIIIIIIII
IIIIIIIIIAIIIIIIIIIIIIIIIIIIIIIIIIIIIIIIIIIIIIIIIIIIIIIIIIIIIIII
IIIIIIIIIAIIIIIIIIIIIIIIIIIIIIIIIIIIIIIIIIIIIIIIIIAIIIIIIIIIIIII
IIIIIIIIIIIIIIIIIIIIIIIIIIIIIIIIIIIIIIIIIIIIIIIIIIIIIIIIIIIIIAI1
IIIIIIIIIIIIIIIIIIIIIIIIIIIIIIIIIIIIIIIIIIIIIIAI1IIIIIIIIIIIIAI1
IIIIIIIIIIIIIIIIIIIIIIIIIIIIIIIIIIIIIAIIIIIIIIAI1IIIIIIIIIIIIAI1
IIIIIIIIIIIIIIIIIIIIIIAIIIIIIIIIIIIIIAIIIIIIIIAI1IIIIIIIIIIIIAI1
IIIIIIIIIIIIIIIIIAIIIIIIIIIIIIIIIIIIIIIIIIIIIIIIIIIIIIIIIIIIIIII
IIIIIIIIIIIIIIIIIIIIIIIIIIIIIIIIIIIIIIIIIIIIIAIIIIIIIIIIIIIIIIII
IIIIIIIIIIIIIIIIIIIIIIAIIIIIIIIIIIIIIIIIIIIIIIIIIIIIIIIIIIIIIIII
IIIIIIIIIAI1IIIIIIIIIIAIIIIIIIIIIIIIIIIIIIIIIIIIIIIIIIIIIIIIIIII
IIIIIIIIIAI1IIIIIIIIIIAIIIIIIIIIIIIIIIIIIIIIIIIIIIAI1IIIIIIIIIII
IIIIIIIIIIIIIIIIIIIIIIIIIIIIIIIIIIIIIIIIIIIIIIIIIIIIIIIIIIIIIAII
IIIIIIIIIIIIIIIIIIIIIIIIIIIIIIIIIIIIIIIIIIIIIIAIIIIIIIIIIIIIIAII
IIIIIIIIIIIIIIIIIIIIIIIIIIIIIIIIIIIIIAIIIIIIIIAIIIIIIIIIIIIIIAII
IIIIIIIIIIIIIIIIIIIIIIAIIIIIIIIIIIIIIAIIIIIIIIAIIIIIIIIIIIIIIAII
IIIIIIIIIIIIIIIIIIIIAIIIIIIIIIIIIIIIIIIIIIIIIIIIIIIIIIIIIIIIIIII
IIIIIIIIIIIIIIIIIIIIIIIIIIIIIIIIIIIIIIIIIIIIIAIIIIIIIIIIIIIIIIII
IIIIIIIIIIIIIIIIIIIIIIAI11IIIIIIIIIIIIIIIIIIIIIIIIIIIIIIIIIIIIII
IIIIIIIIIAIIIIIIIIIIIIAI11IIIIIIIIIIIIIIIIIIIIIIIIIIIIIIIIIIIIII
IIIIIIIIIAIIIIIIIIIIIIAI11IIIIIIIIIIIIIIIIIIIIIIIIAII1IIIIIIIIII
IIIIIIIIIIIIIIIIIIIIIIIIIIIIIIIIIIIIIIIIIIIIIIIIIIIIIIIIIIIIIAII
IIIIIIIIIIIIIIIIIIIIIIIIIIIIIIIIIIIIIIIIIIIIIIAI1111111111IIIAII
IIIIIIIIIIIIIIIIIIIIIIIIIIIIIIIIIIIIIAIIIIIIIIAI1111111111IIIAII
IIIIIIIIIIIIIIIIIIIIIIAIIIIIIIIIIIIIIAIIIIIIIIAI1111111111IIIAII
IIIIIIIIIA1I1122IIIIIIIIIIIIIIIIIIIIIIIIIIIIIIIIIIIIIIIIIIIIIIII
IIIIIIIIIAAI1122IIIIIIIIIIIIIIIIIIIIIIIIIIIIIIIIIIIIIIIIIIIIIIII
IIIIIIIIIAAI11222IIIIIIIIIIIIIIIIIIIIIIIIIIIIIIIIIIIIIIIIIIIIIII
IIIIIA1I1AA211222IIIIIIIIIIIIIIIIIIIIIIIIIIIIIIIIIIIIIIIIIIIIIII
IIIIIAA11AA211222IIIIIIIIIIIIIIIIIIIIIIIIIIIIIIIIIIIIIIIIIIIIIII
IIIIAAA11AA211222IIIIIIIIIIIIIIIIIIIIIIIIIIIIIIIIIIIIIIIIIIIIIII
IIIIAAA11AA1111222IIIIIIIIIIIIIIIIIIIIIIIIIIIIIIIIIIIIIIIIIIIIII
IIIIAAA11AA1111222IIIIA1IIIIIIIIIIIIIIIIIIIIIIIIIIIIIIIIIIIIIIII
IIIIAAA11AA1111222IIIIA1IIIIIIIIIIIIIIIIIIIIIAIIIIIIIIIIIIIIIIII
IIIIIIIIIIIIIIIIIIIIIIAIIIIIIIIIIIIIIIIIIIIIIIIIIIIIIIIIIIIIIIII
IIIIIIIIIAI1111IIIIIIIIIIIIIIIIIIIIIIIIIIIIIIIIIIIIIIIIIIIIIIIII
IIIIIIIIIAI1111IIIIIIIIIIIIIIIIIIIIIIIIIIIIIIIIIIIAI11IIIIIIIIII
IIIIIIIIIIIIIIIIIIIIIIIIIIIIIIIIIIIIIIIIIIIIIIIIIIIIIIIIIIIIIAII
IIIIIIIIIIIIIIIIIIIIIIIIIIIIIIIIIIIIIIIIIIIIIIAIIIIIIIIIIIIIIAII
IIIIIIIIIIIIIIIIIIIIIIIIIIIIIIIIIIIIIAII11IIIIAIIIIIIIIIIIIIIAII
IIIIIIIIIIIIIIIIIIIIIIAIIIIIIIIIIIIIIAII11IIIIAIIIIIIIIIIIIIIAII
IIIIIIIIIAIIIIIIIIIIIIAIIIIIIIIIIIIIIAII11IIIIAIIIIIIIIIIIIIIAII
IIIIIIIIIAAIIIIIIIIIIIAIIIIIIIIIIIIIIAII11IIIIAIIIIIIIIIIIIIIAII
IIIIIAIIIAAIIIIIIIIIIIAIIIIIIIIIIIIIIAII11IIIIAIIIIIIIIIIIIIIAII
IIIIIAAIIAAIIIIIIIIIIIAIIIIIIIIIIIIIIAII11IIIIAIIIIIIIIIIIIIIAII
IIIIAAAIIAAIIIIIIIIIIIAIIIIIIIIIIIIIIAII11IIIIAIIIIIIIIIIIIIIAII
IIIIIIIIIIIIIIIIIIIIIIIIIIIIIIIIIIIIIIIIIIIIIAI2222IIIIIIIIIIIII
IIIIIIIIIIIIIIIIIIIIIIAI1IIIIIIIIIIIIIIIIIIIIIIIIIIIIIIIIIIIIIII
IIIIIIIIIAIIIIIIIIIIIIIIIIIIIIIIIIIIIIIIIIIIIIIIIIIIIIIIIIIIIIII
IIIIIIIIIAIIIIIIIIIIIIIIIIIIIIIIIIIIIIIIIIIIIIIIIIAI1IIIIIIIIIII
IIIIIIIIIIIIIIIIIIIIIIIIIIIIIIIIIIIIIIIIIIIIIIIIIIIIIIIIIIIIIAII
IIIIIIIIIIIIIIIIIIIIIIIIIIIIIIIIIIIIIIIIIIIIIIAIIIIIIIIIIIIIIAII
IIIIIIIIIIIIIIIIIIIIIIIIIIIIIIIIIIIIIAIIIIIIIIAIIIIIIIIIIIIIIAII
IIIIIIIIIIIIIIIIIIIIIIAIIIIIIIIIIIIIIAIIIIIIIIAIIIIIIIIIIIIIIAII
IIIIIIIIIIIIIIIIIIIIIIIIIIIIIIIIIIIIIAIIIIIIIIIIIIIIIIIIIIIIIIII
IIIIAIIIIIIIIIIIIIIIIIIIIIIIIIIIIIIIIAIIIIIIIIIIIIIIIIIIIIIIIIII
IIIIIIIIIIIIIIIIIIIIIIIIIIIIIIIIIIIIIIIIIIIIIAIIIIIIIIIIIIIIIIII
IIIIIIIIIIIIIIIIIIIIIIAIIIIIIIIIIIIIIIIIIIIIIIIIIIIIIIIIIIIIIIII
IIIIIIIIIAIIIIIIIIIIIIIIIIIIIIIIIIIIIIIIIIIIIIIIIIIIIIIIIIIIIIII
IIIIIIIIIAIIIIIIIIIIIIIIIIIIIIIIIIIIIIIIIIIIIIIIIIAIIIIIIIIIIIII
IIIIIIIIIIIIIIIIIIIIIIIIIIIIIIIIIIIIIIIIIIIIIIIIIIIIIIIIIIIIIAII
IIIIIIIIIIIIIIIIIIIIIIIIIIIIIIIIIIIIIIIIIIIIIIAI1IIIIIIIIIIIIAII
IIIIIIIIIIIIIIIIIIIIIIIIIIIIIIIIIIIIIAI11IIIIIAI1IIIIIIIIIIIIAII
IIIIIIIIIIIIIIIIIIIIIIAIIIIIIIIIIIIIIAI11IIIIIAI1IIIIIIIIIIIIAII
IIIIIIIIIAIIIIIIIIIIIIAIIIIIIIIIIIIIIAI11IIIIIAI1IIIIIIIIIIIIAII
IIIIIIIIIAAIIIIIIIIIIIAIIIIIIIIIIIIIIAI11IIIIIAI1IIIIIIIIIIIIAII
IIIIIAIIIAAIIIIIIIIIIIAIIIIIIIIIIIIIIAI11IIIIIAI1IIIIIIIIIIIIAII
IIIIIAAIIAAIIIIIIIIIIIAIIIIIIIIIIIIIIAI11IIIIIAI1IIIIIIIIIIIIAII
IIIIAAAIIAAIIIIIIIIIIIAIIIIIIIIIIIIIIAI11IIIIIAI1IIIIIIIIIIIIAII
IIIIAAAIIAAIIIIIIIIIIIAIIIIIIIIIIIIIIAA11111I1A21IIIIIIIIIIIIAII
IIIIAAAIIAAIIIIIIIIIIIAIIIIIIIIIIIIIIAA11111IAA211IIIIIIIIIIIAII
IIIIIIIIIIIIIIIIIIIIIIAI11IIIIIIIIIIIIIIIIIIIIIIIIIIIIIIIIIIIIII
IIIIIIIIIAIIIIIIIIIIIIIIIIIIIIIIIIIIIIIIIIIIIIIIIIIIIIIIIIIIIIII
IIIIIIIIIAIIIIIIIIIIIIIIIIIIIIIIIIIIIIIIIIIIIIIIIIAI11IIIIIIIIII
IIIIIIIIIIIIIIIIIIIIIIIIIIIIIIIIIIIIIIIIIIIIIIIIIIIIIIIIIIIIIAII
IIIIIIIIIIIIIIIIIIIIIIIIIIIIIIIIIIIIIIIIIIIIIIAI1IIIIIIIIIIIIAII
IIIIIIIIIIIIIIIIIIIIIIIIIIIIIIIIIIIIIAIIIIIIIIAI1IIIIIIIIIIIIAII
IIIIIIIIIIIIIIIIIIIIIIAI1IIIIIIIIIIIIAIIIIIIIIAI1IIIIIIIIIIIIAII
IIIIIIIIIIIIIIIIIIIIIIIIIIIIIIIIIIIIIIIIAIIIIIIIIIIIIIIIIIIIIIII
IIIIIIIIIIIIIIIIIIIIIIIIIIIIIIIIIIIIIIIIAIIIIIIIIIIIIIIIIIIAIIII
IIIIIIIIIIIIIIIIIIIIIIIIIIIIIIIIIIIIIIIIAIIIIA1IIIIIIIIIIIIAIIII
IIIIIIIIIIIIIIIIIIIIIIAI11IIIIIIIIIIIIIIIIIIIIIIIIIIIIIIIIIIIIII
IIIIIIIIIAIIIIIIIIIIIIIIIIIIIIIIIIIIIIIIIIIIIIIIIIIIIIIIIIIIIIII
IIIIIIIIIAIIIIIIIIIIIIIIIIIIIIIIIIIIIIIIIIIIIIIIIIAIIIIIIIIIIIII
IIIIIIIIIIIIIIIIIIIIIIIIIIIIIIIIIIIIIIIIIIIIIIIIIIIIIIIIIIIIIAII
IIIIIIIIIIIIIIIIIIIIIIIIIIIIIIIIIIIIIIIIIIIIIIAIIIIIIIIIIIIIIAII
IIIIIIIIIIIIIIIIIIIIIIIIIIIIIIIIIIIIIAII11IIIIAIIIIIIIIIIIIIIAII
IIIIIIIIIIIIIIIIIIIIIIAII1111IIIIIIIIAII11IIIIAIIIIIIIIIIIIIIAII
IIIIIIIIIIIIIIIIIIIIIIIIIIIIIIIIIIIIIIIIIIAIIIIIIIIIIIIIIIIIIIII
IIIIIIIIIIIIIIIIIIIIIIIIIIIIIIIIIIIIIIIIIIAIIIIIIIIIIIIIIIAI1III
IIIIIIIIIIIIIIIIIIIIIIAI11IIIIIIIIIIIIIIIIIIIIIIIIIIIIIIIIIIIIII
IIIIIIIIIAIIIIIIIIIIIIIIIIIIIIIIIIIIIIIIIIIIIIIIIIIIIIIIIIIIIIII
IIIIIIIIIAIIIIIIIIIIIIIIIIIIIIIIIIIIIIIIIIIIIIIIIIAII1IIIIIIIIII
IIIIIIIIIIIIIIIIIIIIIIIIIIIIIIIIIIIIIIIIIIIIIIIIIIIIIIIIIIIIIAII
IIIIIIIIIIIIIIIIIIIIIIIIIIIIIIIIIIIIIIIIIIIIIIAI111IIIIIIIIIIAII
IIIIIIIIIIIIIIIIIIIIIIIIIIIIIIIIIIIIIAI1IIIIIIAI111IIIIIIIIIIAII
IIIIIIIIIIIIIIIIIIIIIIAI1IIIIIIIIIIIIAI1IIIIIIAI111IIIIIIIIIIAII
IIIIIIIIIAIIIIIIIIIIIIAI1IIIIIIIIIIIIAI1IIIIIIAI111IIIIIIIIIIAII
IIIIIIIIIAAIIIIIIIIIIIAI1IIIIIIIIIIIIAI1IIIIIIAI111IIIIIIIIIIAII
IIIIIAIIIAAIIIIIIIIIIIAI1IIIIIIIIIIIIAI1IIIIIIAI111IIIIIIIIIIAII
IIIIIAAIIAAIIIIIIIIIIIAI1IIIIIIIIIIIIAI1IIIIIIAI111IIIIIIIIIIAII
IIIIAAAIIAAIIIIIIIIIIIAI1IIIIIIIIIIIIAI1IIIIIIAI111IIIIIIIIIIAII
IIIIAAAIIAAIIIIIIIIIIIAI1IIIIIIIIIIIIAI1IIIIIIAI11AIIIIIIIIIIAII
IIIIAAAIIAAIIIIIIIIIIIAI1IIIIIIIIIIIIAI1IIIIIIAI11AIIIIIIIIAIAII
IIIIIIIIIIIIIIIIIIIIIIAI11IIIIIIIIIIIIIIIIIIIIIIIIIIIIIIIIIIIIII
IIIIIIIIIAIIIIIIIIIIIIIIIIIIIIIIIIIIIIIIIIIIIIIIIIIIIIIIIIIIIIII
IIIIIIIIIAIIIIIIIIIIIIIIIIIIIIIIIIIIIIIIIIIIIIIIIIAI11IIIIIIIIII
IIIIIIIIIIIIIIIIIIIIIIIIIIIIIIIIIIIIIIIIIIIIIIIIIIIIIIIIIIIIIAII
IIIIIIIIIIIIIIIIIIIIIIIIIIIIIIIIIIIIIIIIIIIIIIAIIIIIIIIIIIIIIAII
IIIIIIIIIIIIIIIIIIIIIIIIIIIIIIIIIIIIIAIIIIIIIIAIIIIIIIIIIIIIIAII
IIIIIIIIIIIIIIIIIIIIIIAIIIIIIIIIIIIIIAIIIIIIIIAIIIIIIIIIIIIIIAII
IIIIIIIIIIIIIIIIIIIIIIIIIIIIIIIIIIIIIIIIIIIIIIIIIIIIIIIIIIIAI1II
IIIIIIIIIIIIIIIIIIIIIIAIIIIIIIIIIIIIIIIIIIIIIIIIIIIIIIIIIIIIIIII
IIIIIIIIIAIIIIIIIIIIIIIIIIIIIIIIIIIIIIIIIIIIIIIIIIIIIIIIIIIIIIII
IIIIIIIIIAIIIIIIIIIIIIIIIIIIIIIIIIIIIIIIIIIIIIIIIIAIIIIIIIIIIIII
IIIIIIIIIIIIIIIIIIIIIIIIIIIIIIIIIIIIIIIIIIIIIIIIIIIIIIIIIIIIIAI1
IIIIIIIIIIIIIIIIIIIIIIIIIIIIIIIIIIIIIIIIIIIIIIAIIIIIIIIIIIIIIAI1
IIIIIIIIIIIIIIIIIIIIIIIIIIIIIIIIIIIIIAIIIIIIIIAIIIIIIIIIIIIIIAI1
IIIIIIIIIIIIIIIIIIIIIIAIIIIIIIIIIIIIIAIIIIIIIIAIIIIIIIIIIIIIIAI1
IIIIIIIIIIIIIIIIIIIIIIIIIIIIIIIIIIIIIIIIIIIIIIIIIIIIIIIIIIIAIIII
IIIIIIIIIIIIIIIIIIIIIIAIIIIIIIIIIIIIIIIIIIIIIIIIIIIIIIIIIIIIIIII
IIIIIIIIIAIIIIIIIIIIIIIIIIIIIIIIIIIIIIIIIIIIIIIIIIIIIIIIIIIIIIII
IIIIIIIIIAIIIIIIIIIIIIIIIIIIIIIIIIIIIIIIIIIIIIIIIIAIIIIIIIIIIIII
IIIIIIIIIIIIIIIIIIIIIIIIIIIIIIIIIIIIIIIIIIIIIIIIIIIIIIIIIIIIIAII
IIIIIIIIIIIIIIIIIIIIIIIIIIIIIIIIIIIIIIIIIIIIIIAI11111IIIIIIIIAII
IIIIIIIIIIIIIIIIIIIIIIIIIIIIIIIIIIIIIAIIIIIIIIAI11111IIIIIIIIAII
IIIIIIIIIIIIIIIIIIIIIIAI1IIIIIIIIIIIIAIIIIIIIIAI11111IIIIIIIIAII
IIIIIIIIIIIIIIIIIIIIIIAIIIIIIIIIIIIIIIIIIIIIIIIIIIIIIIIIIIIIIIII
IIIIIIIIIAIIIIIIIIIIIIIIIIIIIIIIIIIIIIIIIIIIIIIIIIIIIIIIIIIIIIII
IIIIIIIIIAIIIIIIIIIIIIIIIIIIIIIIIIIIIIIIIIIIIIIIIIAIIIIIIIIIIIII
IIIIIIIIIIIIIIIIIIIIIIIIIIIIIIIIIIIIIIIIIIIIIIIIIIIIIIIIIIIIIAII
IIIIIIIIIIIIIIIIIIIIIIIIIIIIIIIIIIIIIIIIIIIIIIAIIIIIIIIIIIIIIAII
IIIIIIIIIIIIIIIIIIIIIIIIIIIIIIIIIIIIIAI111IIIIAIIIIIIIIIIIIIIAII
IIIIIIIIIIIIIIIIIIIIIIAI11IIIIIIIIIIIAI111IIIIAIIIIIIIIIIIIIIAII
IIIIIIIIIIIIIIIIIIIIIIAI11IIIIIIIIIIIIIIIIIIIIIIIIIIIIIIIIIIIIII
IIIIIIIIIAIIIIIIIIIIIIIIIIIIIIIIIIIIIIIIIIIIIIIIIIIIIIIIIIIIIIII
IIIIIIIIIAIIIIIIIIIIIIIIIIIIIIIIIIIIIIIIIIIIIIIIIIAIIIIIIIIIIIII
IIIIIIIIIIIIIIIIIIIIIIIIIIIIIIIIIIIIIIIIIIIIIIIIIIIIIIIIIIIIIAI1
IIIIIIIIIIIIIIIIIIIIIIIIIIIIIIIIIIIIIIIIIIIIIIAI1111IIIIIIIIIAI1
IIIIIIIIIIIIIIIIIIIIIIIIIIIIIIIIIIIIIAI1111IIIAI1111IIIIIIIIIAI1
IIIIIIIIIIIIIIIIIIIIIIAI1IIIIIIIIIIIIAI1111IIIAI1111IIIIIIIIIAI1
IIIIIIIIIIIIIIIIIIIIIIAIIIIIIIIIIIIIIIIIIIIIIIIIIIIIIIIIIIIIIIII
IIIIIIIIIAIIIIIIIIIIIIIIIIIIIIIIIIIIIIIIIIIIIIIIIIIIIIIIIIIIIIII
IIIIIIIIIAIIIIIIIIIIIIIIIIIIIIIIIIIIIIIIIIIIIIIIIIAIIIIIIIIIIIII
IIIIIIIIIIIIIIIIIIIIIIIIIIIIIIIIIIIIIIIIIIIIIIIIIIIIIIIIIIIIIAII
IIIIIIIIIIIIIIIIIIIIIIIIIIIIIIIIIIIIIIIIIIIIIIAIIIIIIIIIIIIIIAII
IIIIIIIIIIIIIIIIIIIIIIIIIIIIIIIIIIIIIAIIIIIIIIAIIIIIIIIIIIIIIAII
IIIIIIIIIIIIIIIIIIIIIIAIIIIIIIIIIIIIIAIIIIIIIIAIIIIIIIIIIIIIIAII
IIIIIIIIIIIIIIIIIIIIIIIIIIIIIIIIIIIIIIIIIIIIIIIIIIIIIIIIIIAI1111
IIIIIIIIIIIIIIIIIIIIIIIIIIIIIIIIIIIIIIIIIIIIIIIIIIIIIIIIIIAA1111
IIIIIIIIIIIIIIIIIIIIIIAIIIIIIIIIIIIIIIIIIIIIIIIIIIIIIIIIIIIIIIII
IIIIIIIIIAI1111IIIIIIIIIIIIIIIIIIIIIIIIIIIIIIIIIIIIIIIIIIIIIIIII
IIIIIIIIIAI1111IIIIIIIIIIIIIIIIIIIIIIIIIIIIIIIIIIIAI11IIIIIIIIII
IIIIIIIIIIIIIIIIIIIIIIIIIIIIIIIIIIIIIIIIIIIIIIIIIIIIIIIIIIIIIAI1
IIIIIIIIIIIIIIIIIIIIIIIIIIIIIIIIIIIIIIIIIIIIIIAIIIIIIIIIIIIIIAI1
IIIIIIIIIIIIIIIIIIIIIIIIIIIIIIIIIIIIIAI1IIIIIIAIIIIIIIIIIIIIIAI1
IIIIIIIIIIIIIIIIIIIIIIAI1IIIIIIIIIIIIAI1IIIIIIAIIIIIIIIIIIIIIAI1
IIIIIIIIIAIIIIIIIIIIIIAI1IIIIIIIIIIIIAI1IIIIIIAIIIIIIIIIIIIIIAI1
IIIIIIIIIAAIIIIIIIIIIIAI1IIIIIIIIIIIIAI1IIIIIIAIIIIIIIIIIIIIIAI1
IIIIIAIIIAAIIIIIIIIIIIAI1IIIIIIIIIIIIAI1IIIIIIAIIIIIIIIIIIIIIAI1
IIIIIAAIIAAIIIIIIIIIIIAI1IIIIIIIIIIIIAI1IIIIIIAIIIIIIIIIIIIIIAI1
IIIIAAAIIAAIIIIIIIIIIIAI1IIIIIIIIIIIIAI1IIIIIIAIIIIIIIIIIIIIIAI1
IIIIIIIIIIIIIIIIIIIIIIAIIIIIIIIIIIIIIIIIIIIIIIIIIIIIIIIIIIIIIIII
IIIIIIIIIAI11IIIIIIIIIIIIIIIIIIIIIIIIIIIIIIIIIIIIIIIIIIIIIIIIIII
IIIIIIIIIAI11IIIIIIIIIIIIIIIIIIIIIIIIIIIIIIIIIIIIIAIIIIIIIIIIIII
IIIIIIIIIIIIIIIIIIIIIIIIIIIIIIIIIIIIIIIIIIIIIIIIIIIIIIIIIIIIIAI1
IIIIIIIIIIIIIIIIIIIIIIIIIIIIIIIIIIIIIIIIIIIIIIAI1111IIIIIIIIIAI1
IIIIIIIIIIIIIIIIIIIIIIIIIIIIIIIIIIIIIAIIIIIIIIAI1111IIIIIIIIIAI1
IIIIIIIIIIIIIIIIIIIIIIAI1111IIIIIIIIIAIIIIIIIIAI1111IIIIIIIIIAI1
IIIIIIIIIAIIIIIIIIIIIIIIIIIIIIIIIIIIIIIIIIIIIIIIIIIIIIIIIIIIIIII
IIIIIIIIIAAIIIIIIIIIIIIIIIIIIIIIIIIIIIIIIIIIIIIIIIIIIIIIIIIIIIII
IIIIIAIIIAAIIIIIIIIIIIIIIIIIIIIIIIIIIIIIIIIIIIIIIIIIIIIIIIIIIIII
IIIIIAAIIAAIIIIIIIIIIIIIIIIIIIIIIIIIIIIIIIIIIIIIIIIIIIIIIIIIIIII
IIIIAAAIIAAIIIIIIIIIIIIIIIIIIIIIIIIIIIIIIIIIIIIIIIIIIIIIIIIIIIII
IIIIIIIIIIIIIIIIIIIIIIAIIIIIIIIIIIIIIIIIIIIIIIIIIIIIIIIIIIIIIIII
IIIIIIIIIAIIIIIIIIIIIIIIIIIIIIIIIIIIIIIIIIIIIIIIIIIIIIIIIIIIIIII
IIIIIIIIIAIIIIIIIIIIIIIIIIIIIIIIIIIIIIIIIIIIIIIIIIAIIIIIIIIIIIII
IIIIIIIIIIIIIIIIIIIIIIIIIIIIIIIIIIIIIIIIIIIIIIIIIIIIIIIIIIIIIAI1
IIIIIIIIIIIIIIIIIIIIIIIIIIIIIIIIIIIIIIIIIIIIIIAIIIIIIIIIIIIIIAI1
IIIIIIIIIIIIIIIIIIIIIIIIIIIIIIIIIIIIIAIIIIIIIIAIIIIIIIIIIIIIIAI1
IIIIIIIIIIIIIIIIIIIIIIAI11IIIIIIIIIIIAIIIIIIIIAIIIIIIIIIIIIIIAI1
IIIIIIIIIIIIIIIIIIIIIIAIIIIIIIIIIIIIIIIIIIIIIIIIIIIIIIIIIIIIIIII
IIIIIIIIIAIIIIIIIIIIIIIIIIIIIIIIIIIIIIIIIIIIIIIIIIIIIIIIIIIIIIII
IIIIIIIIIAIIIIIIIIIIIIIIIIIIIIIIIIIIIIIIIIIIIIIIIIAIIIIIIIIIIIII
IIIIIIIIIIIIIIIIIIIIIIIIIIIIIIIIIIIIIIIIIIIIIIIIIIIIIIIIIIIIIAII
IIIIIIIIIIIIIIIIIIIIIIIIIIIIIIIIIIIIIIIIIIIIIIAI1IIIIIIIIIIIIAII
IIIIIIIIIIIIIIIIIIIIIIIIIIIIIIIIIIIIIAI11IIIIIAI1IIIIIIIIIIIIAII
IIIIIIIIIIIIIIIIIIIIIIAIIIIIIIIIIIIIIAI11IIIIIAI1IIIIIIIIIIIIAII
IIIIIIIIIIIIIIIIIIIIIIAIIIIIIIIIIIIIIIIIIIIIIIIIIIIIIIIIIIIIIIII
IIIIIIIIIAI11IIIIIIIIIIIIIIIIIIIIIIIIIIIIIIIIIIIIIIIIIIIIIIIIIII
IIIIIIIIIAI11IIIIIIIIIIIIIIIIIIIIIIIIIIIIIIIIIIIIIAIIIIIIIIIIIII
IIIIIIIIIIIIIIIIIIIIIIIIIIIIIIIIIIIIIIIIIIIIIIIIIIIIIIIIIIIIIAII
IIIIIIIIIIIIIIIIIIIIIIIIIIIIIIIIIIIIIIIIIIIIIIAIIIIIIIIIIIIIIAII
IIIIIIIIIIIIIIIIIIIIIIIIIIIIIIIIIIIIIAI11IIIIIAIIIIIIIIIIIIIIAII
IIIIIIIIIIIIIIIIIIIIIIAI11111111IIIIIAI11IIIIIAIIIIIIIIIIIIIIAII
IIIIIIIIIA2IIIIIIIIIIIIIIIIIIIIIIIIIIIIIIIIIIIIIIIIIIIIIIIIIIIII
IIIIIIIIIIIIIIIIIIIIIIAIIIIIIIIIIIIIIIIIIIIIIIIIIIIIIIIIIIIIIIII
IIIIIIIIIAI111IIIIIIIIIIIIIIIIIIIIIIIIIIIIIIIIIIIIIIIIIIIIIIIIII
IIIIIIIIIAI111IIIIIIIIIIIIIIIIIIIIIIIIIIIIIIIIIIIIAIIIIIIIIIIIII
IIIIIIIIIIIIIIIIIIIIIIIIIIIIIIIIIIIIIIIIIIIIIIIIIIIIIIIIIIIIIAII
IIIIIIIIIIIIIIIIIIIIIIIIIIIIIIIIIIIIIIIIIIIIIIAIIIIIIIIIIIIIIAII
IIIIIIIIIIIIIIIIIIIIIIIIIIIIIIIIIIIIIAIIIIIIIIAIIIIIIIIIIIIIIAII
IIIIIIIIIIIIIIIIIIIIIIAI1111IIIIIIIIIAIIIIIIIIAIIIIIIIIIIIIIIAII
IIIIIIIIIIIIIIIIIIIIIIIIIIIIIIIIIA2IIIIIIIIIIIIIIIIIIIIIIIIIIIII
IIIIIIIIIA2IIIIIIIIIIIIIIIIIIIIIIA2IIIIIIIIIIIIIIIIIIIIIIIIIIIII
IIIIIIIIIIIIIIIIIIIIIIAIIIIIIIIIIIIIIIIIIIIIIIIIIIIIIIIIIIIIIIII
IIIIIIIIIAI111IIIIIIIIIIIIIIIIIIIIIIIIIIIIIIIIIIIIIIIIIIIIIIIIII
IIIIIIIIIAI111IIIIIIIIIIIIIIIIIIIIIIIIIIIIIIIIIIIIAIIIIIIIIIIIII
IIIIIIIIIIIIIIIIIIIIIIIIIIIIIIIIIIIIIIIIIIIIIIIIIIIIIIIIIIIIIAII
IIIIIIIIIIIIIIIIIIIIIIIIIIIIIIIIIIIIIIIIIIIIIIAIIIIIIIIIIIIIIAII
IIIIIIIIIIIIIIIIIIIIIIIIIIIIIIIIIIIIIAIIIIIIIIAIIIIIIIIIIIIIIAII
IIIIIIIIIIIIIIIIIIIIIIAIIIIIIIIIIIIIIAIIIIIIIIAIIIIIIIIIIIIIIAII
IIIIIIIIIIIIIIIIIIIIIIIIIIIIIIIIIA2IIIIIIIIIIIIIIIIIIIIIIIIIIIII
IIIIIIIIIIIA2IIIIIIIIIIIIIIIIIIIIA2IIIIIIIIIIIIIIIIIIIIIIIIIIIII
IIIIIIIIIIIIIIIIIIIIIIAIIIIIIIIIIIIIIIIIIIIIIIIIIIIIIIIIIIIIIIII
IIIIIIIIIAI11111IIIIIIIIIIIIIIIIIIIIIIIIIIIIIIIIIIIIIIIIIIIIIIII
IIIIIIIIIAI11111IIIIIIIIIIIIIIIIIIIIIIIIIIIIIIIIIIAIIIIIIIIIIIII
IIIIIIIIIIIIIIIIIIIIIIIIIIIIIIIIIIIIIIIIIIIIIIIIIIIIIIIIIIIIIAII
IIIIIIIIIIIIIIIIIIIIIIIIIIIIIIIIIIIIIIIIIIIIIIAIIIIIIIIIIIIIIAII
IIIIIIIIIIIIIIIIIIIIIIIIIIIIIIIIIIIIIAI11111IIAIIIIIIIIIIIIIIAII
IIIIIIIIIIIIIIIIIIIIIIAI1111IIIIIIIIIAI11111IIAIIIIIIIIIIIIIIAII
IIIIIIIIIAI111IIIIIIIIIIIIIIIIIIIIIIIIIIIIIIIIIIIIIIIIIIIIIIIIII
IIIIIIIIIAA111IIIIIIIIIIIIIIIIIIIIIIIIIIIIIIIIIIIIIIIIIIIIIIIIII
IIIIIAI11AA1111IIIIIIIIIIIIIIIIIIIIIIIIIIIIIIIIIIIIIIIIIIIIIIIII
IIIIIAA11AA11111IIIIIIIIIIIIIIIIIIIIIIIIIIIIIIIIIIIIIIIIIIIIIIII
IIIIAAA11AA11111IIIIIIIIIIIIIIIIIIIIIIIIIIIIIIIIIIIIIIIIIIIIIIII
IIIIAAA11AA11111111IIIIIIIIIIIIIIIIIIIIIIIIIIIIIIIIIIIIIIIIIIIII
IIIIAAA11AA11111111IIIIIIIIIIIIIIIIIIIIIIIIAIIIIIIIIIIIIIIIIIIII
IIIIAAA11AAA1111111IIIIIIIIIIIIIIIIIIIIIIIIAIIIIIIIIIIIIIIIIIIII
IIIIIIIIIIIIIIIIIIIIIIAI11IIIIIIIIIIIIIIIIIIIIIIIIIIIIIIIIIIIIII
IIIIIIIIIAIIIIIIIIIIIIIIIIIIIIIIIIIIIIIIIIIIIIIIIIIIIIIIIIIIIIII
IIIIIIIIIAIIIIIIIIIIIIIIIIIIIIIIIIIIIIIIIIIIIIIIIIAI1IIIIIIIIIII
IIIIIIIIIIIIIIIIIIIIIIIIIIIIIIIIIIIIIIIIIIIIIIIIIIIIIIIIIIIIIAII
IIIIIIIIIIIIIIIIIIIIIIIIIIIIIIIIIIIIIIIIIIIIIIAI111IIIIIIIIIIAII
IIIIIIIIIIIIIIIIIIIIIIIIIIIIIIIIIIIIIAI1IIIIIIAI111IIIIIIIIIIAII
IIIIIIIIIIIIIIIIIIIIIIAI1IIIIIIIIIIIIAI1IIIIIIAI111IIIIIIIIIIAII
IIIIIIIIIIIIIIIIIIIIIIIIIIIIIIIIIIIIIIIIIIIIIIIIIIIIIIIIIIIAIIII
IIIIIIIIIIIIIIIIIIIIIIIIIIIIIIIIIAIIIIIIIIIIIIIIIIIIIIIIIIIAIIII
IIIIIIIIIIIIIIIIIIIIIIAI11IIIIIIIIIIIIIIIIIIIIIIIIIIIIIIIIIIIIII
IIIIIIIIIAIIIIIIIIIIIIIIIIIIIIIIIIIIIIIIIIIIIIIIIIIIIIIIIIIIIIII
IIIIIIIIIAIIIIIIIIIIIIIIIIIIIIIIIIIIIIIIIIIIIIIIIIAI1IIIIIIIIIII
IIIIIIIIIIIIIIIIIIIIIIIIIIIIIIIIIIIIIIIIIIIIIIIIIIIIIIIIIIIIIAII
IIIIIIIIIIIIIIIIIIIIIIIIIIIIIIIIIIIIIIIIIIIIIIAI1IIIIIIIIIIIIAII
IIIIIIIIIIIIIIIIIIIIIIIIIIIIIIIIIIIIIAIIIIIIIIAI1IIIIIIIIIIIIAII
IIIIIIIIIIIIIIIIIIIIIIAIIIIIIIIIIIIIIAIIIIIIIIAI1IIIIIIIIIIIIAII
IIIIIIIIIIIIIIIIIIIIIIIIIIIIIIIIIIIIIIIIIIIIIIIIIIIIIIIIIIIIIAI1
IIIIIIIIIIIIIIIIIIIIIIIIIIIIIIIIIIIIIIIIAIIIIIIIIIIIIIIIIIIIIAI1
IIIIIIIIIIIIIIIIIIIIIIAIIIIIIIIIIIIIIIIIIIIIIIIIIIIIIIIIIIIIIIII
IIIIIIIIIAII11IIIIIIIIIIIIIIIIIIIIIIIIIIIIIIIIIIIIIIIIIIIIIIIIII
IIIIIIIIIAII11IIIIIIIIIIIIIIIIIIIIIIIIIIIIIIIIIIIIAII1IIIIIIIIII
IIIIIIIIIIIIIIIIIIIIIIIIIIIIIIIIIIIIIIIIIIIIIIIIIIIIIIIIIIIIIAI1
IIIIIIIIIIIIIIIIIIIIIIIIIIIIIIIIIIIIIIIIIIIIIIAIIIIIIIIIIIIIIAI1
IIIIIIIIIIIIIIIIIIIIIIIIIIIIIIIIIIIIIAIIIIIIIIAIIIIIIIIIIIIIIAI1
IIIIIIIIIIIIIIIIIIIIIIAIIIIIIIIIIIIIIAIIIIIIIIAIIIIIIIIIIIIIIAI1
IIIIIIIIIIIIIIIIIIIIIIIIIIIIIIIIIIIIIIIIIIIIIIIIIIIIIIIIIIIIIAII
IIIIIIIIIIIIIIIIIIIIIIIIIIIIIIIIIIIIIIIIAIIIIIIIIIIIIIIIIIIIIAII
IIIIIIIIIIIIIIIIIIIIIIAIIIIIIIIIIIIIIIIIIIIIIIIIIIIIIIIIIIIIIIII
IIIIIIIIIAIIIIIIIIIIIIIIIIIIIIIIIIIIIIIIIIIIIIIIIIIIIIIIIIIIIIII
IIIIIIIIIAIIIIIIIIIIIIIIIIIIIIIIIIIIIIIIIIIIIIIIIIAIIIIIIIIIIIII
IIIIIIIIIIIIIIIIIIIIIIIIIIIIIIIIIIIIIIIIIIIIIIIIIIIIIIIIIIIIIAII
IIIIIIIIIIIIIIIIIIIIIIIIIIIIIIIIIIIIIIIIIIIIIIAIIIIIIIIIIIIIIAII
IIIIIIIIIIIIIIIIIIIIIIIIIIIIIIIIIIIIIAIIIIIIIIAIIIIIIIIIIIIIIAII
IIIIIIIIIIIIIIIIIIIIIIAIIIIIIIIIIIIIIAIIIIIIIIAIIIIIIIIIIIIIIAII
IIIIIIIIIIIIIIIIIIIIIIIIIIIIIIIIIIIIIIIIIIAIIIIIIIIIIIIIIIIIIIII
IAI11IIIIIIIIIIIIIIIIIIIIIIIIIIIIIIIIIIIIIAIIIIIIIIIIIIIIIIIIIII
IIIIIIIIIIIIIIIIIIIIIIAI11IIIIIIIIIIIIIIIIIIIIIIIIIIIIIIIIIIIIII
IIIIIIIIIAIIIIIIIIIIIIIIIIIIIIIIIIIIIIIIIIIIIIIIIIIIIIIIIIIIIIII
IIIIIIIIIAIIIIIIIIIIIIIIIIIIIIIIIIIIIIIIIIIIIIIIIIAIIIIIIIIIIIII
IIIIIIIIIIIIIIIIIIIIIIIIIIIIIIIIIIIIIIIIIIIIIIIIIIIIIIIIIIIIIAII
IIIIIIIIIIIIIIIIIIIIIIIIIIIIIIIIIIIIIIIIIIIIIIAIIIIIIIIIIIIIIAII
IIIIIIIIIIIIIIIIIIIIIIIIIIIIIIIIIIIIIAI11IIIIIAIIIIIIIIIIIIIIAII
IIIIIIIIIIIIIIIIIIIIIIAI111IIIIIIIIIIAI11IIIIIAIIIIIIIIIIIIIIAII
IIIIIIIIIIIIIIIIIIIIIIIIIIIIIIIIIIIIIIIIIIIIIAIIIIIIIIIIIIIIIIII
IAIIIIIIIIIIIIIIIIIIIIIIIIIIIIIIIIIIIIIIIIIIIAIIIIIIIIIIIIIIIIII
IIIIIIIIIIIIIIIIIIIIIIAIIIIIIIIIIIIIIIIIIIIIIIIIIIIIIIIIIIIIIIII
IIIIIIIIIAIIIIIIIIIIIIIIIIIIIIIIIIIIIIIIIIIIIIIIIIIIIIIIIIIIIIII
[...]
IIIIIIIIIIIAIIIIIIIIIIIIIIIIIIIIIIIIIIIIIIIIIIIIIIIIIIIIIIIIIIII
IIIIIIIIIIIAIIIIIIIIIIIIIIIIIIIIIIIIIIIIIIIIIIIIIIAIIIIIIIIIIIII
IIIIIIIIIIIIIIIIIIIIIIIIIIIIIIIIIIIIIIIIAIIIIIIIIIIIIIIIIIIIIIII
IIIIIIIIIIIIIIIIIIIIIIIIIIIIIIIIIIIIIIIIAII1I111111IIIIIIIIIIIII
IIIIIIIIIIIIIIIIIIIIIIIIIIIIIIIIIIIIIIIIIIIIIIIIIIIAI111111I1111
IIIIIIIIIIIIIIIIIIIIIIAIIIIIIIIIIIIIIIIIIIIIIIIIIIIIIIIIIIIIIIII
IIIIIIIIIIIIIIIIIIIIIIIIIIIIIIIIIIIIIIIIIIIIIIA1IIIIIIIIIIIIIIII
IIIIIIIIIIIIIIIIIIIIIIA1IIIIIIIIIIIIIIIIIIIIIIA1IIIIIIIIIIIIIIII
IIIIIIIIIIIAIIIIIIIIIIIIIIIIIIIIIIIIIIIIIIIIIIIIIIIIIIIIIIIIIIII
IIIIIIIIIIIAIIIIIIIIIIIIIIIIIIIIIIIIIIIIIIIIIIIIIIAIIIIIIIIIIIII
IIIIIIIIIIIIIIIIIIIIIIIIIIIIIIIIIIIIIIIIAIIIIIIIIIIIIIIIIIIIIIII
IIIIIIIIIIIIIIIIIIIIIIIIIIIIIIIIIIIIIIIIIIIIIIIIIIIAIIIIIIIIIIII
IIIIIIIIIIIIIIIIIIIIIIAIIIIIIIIIIIIIIIIIIIIIIIIIIIIIIIIIIIIIIIII
IIIIIIIIIIIIIIIIIIIIIIIIIIIIIIIIIIIIIIIIIIIIIIA1IIIIIIIIIIIIIIII
IIIIIIIIIIIIIIIIIIIIIIIIIIIIIIIIIIIIIIIIA1IIIIA1IIIIIIIIIIIIIIII
IIIIIIIIIIIAIIIIIIIIIIIIIIIIIIIIIIIIIIIIIIIIIIIIIIIIIIIIIIIIIIII
IIIIIIIIIIIAIIIIIIIIIIIIIIIIIIIIIIIIIIIIIIIIIIIIIIAIIIIIIIIIIIII
IIIIIIIIIIIIIIIIIIIIIIIIIIIIIIIIIIIIIIIIIIAIIIIIIIIIIIIIIIIIIIII
IIIIIIIIIIIIIIIIIIIIIIIIIIIIIIIIIIIIIIIIAIIIIIIIIIIIIIIIIIIIIIII
IIIIIIIIIIIIIIIIIIIIIIIIIIIIIIIIIIIIIIIIIIIIIIIIIIIAI111IIIIIIII
IIIIIIIIIIIIIIIIIIIIIIAIIIIIIIIIIIIIIIIIIIIIIIIIIIIIIIIIIIIIIIII
IIIIIIIIIIIIIIIIIIIIIIIIIIIIIIIIIIIIIIIIIIIIIIA1I22222IIIIIIIIII
IIIIIIIIIIIIIIIIIIIIIIIIIIIIIIIIIIIIIIIIIIA1I2A122222222222IIIII
IIIIIIIIIIIAII111IIIIIIIIIIIIIIIIIIIIIIIIIIIIIIIIIIIIIIIIIIIIIII
IIIIIIIIIIIAII111IIIIIIIIIIIIIIIIIIIIIIIIIIIIIIIIIAIIIIIIIIIIIII
IIIIIIIIIIIIIIIIIIIIIIIIIIIIIIIIIIIIIIIIIIAIIIIIIIIIIIIIIIIIIIII
IIIIIIIIIIIIIIIIIIIIIIIIIIIIIIIIIIIIIIIIAIIII1II12IIIIIIIIIIIIII
IIIIIIIIIIIIIIIIIIIIIIIIIIIIIIIIIIIIIIIIIIIIIIIIIIIAI111111I1III
IIIIIIIIIIIIIIIIIIIIIIAIIIIIIIIIIIIIIIIIIIIIIIIIIIIIIIIIIIIIIIII
IIIIIIIIIIIIIIIIIIIIIIIIIIIIIIIIIIIIIIIIIIIIIIAIIIIIIIIIIIIIIIII
IIIIIIIIIIIIIIIIIIIIIIIIIIIIIIIIIIIIIIIIIIA1I1AIIIIIIIIIIIIIIIII
IIIIIIIIIIIAIIIIIIIIIIIIIIIIIIIIIIIIIIIIIIIIIIIIIIIIIIIIIIIIIIII
IIIIIIIIIIIAIIIIIIIIIIIIIIIIIIIIIIIIIIIIIIIIIIIIIIAIIIIIIIIIIIII
IIIIIIIIIIIIIIIIIIIIIIIIIIIIIIIIIIIIIIIIIIAIIIIIIIIIIIIIIIIIIIII
IIIIIIIIIIIIIIIIIIIIIIIIIIIIIIIIIIIIIIIIAIIIIIIIIIIIIIIIIIIIIIII
IIIIIIIIIIIIIIIIIIIIIIIIIIIIIIIIIIIIIIIIIIIIIIIIIIIAIIIIIIIIIIII
IIIIIIIIIIIIIIIIIIIIIIAIIIIIIIIIIIIIIIIIIIIIIIIIIIIIIIIIIIIIIIII
IIIIIIIIIIIIIIIIIIIIIIIIIIIIIIIIIIIIIIIIIIIIIIAII11111111IIIIIII
IIIIIIIIIIIIIIIIIIIIIIIIIIIIIIIIIIIIIIIIIIIIIAAII11111111IIIIIII
IIIIIIIIIIIAIIIIIIIIIIIIIIIIIIIIIIIIIIIIIIIIIIIIIIIIIIIIIIIIIIII
IIIIIIIIIIIAIIIIIIIIIIIIIIIIIIIIIIIIIIIIIIIIIIIIIIAIIIIIIIIIIIII
IIIIIIIIIIIIIIIIIIIIIIIIIIIIIIIIIIIIIIIIIIAIIIIIIIIIIIIIIIIIIIII
IIIIIIIIIIIIIIIIIIIIIIIIIIIIIIIIIIIIIIIIAI1IIIIIIIIIIIIIIIIIIIII
IIIIIIIIIIIIIIIIIIIIIIIIIIIIIIIIIIIIIIIIIIIIIIIIIIIAI1111111IIII
IIIIIIIIIIIIIIIIIIIIIIAIIIIIIIIIIIIIIIIIIIIIIIIIIIIIIIIIIIIIIIII
IIIIIIIIIIIIIIIIIIIIIIIIIIIIIIIIIIIIIIIIIIIIIIAIIIIIIIIIIIIIIIII
IIIIIIIIIIIIIIIIIIIIIIIIIIIIIIIIIIIIIIIIIIIIIAAIIIIIIIIIIIIIIIII
IIIIIIIIIIIAIIIIIIIIIIIIIIIIIIIIIIIIIIIIIIIIIIIIIIIIIIIIIIIIIIII
IIIIIIIIIIIAIIIIIIIIIIIIIIIIIIIIIIIIIIIIIIIIIIIIIIAIIIIIIIIIIIII
IIIIIIIIIIIIIIIIIIIIIIIIIIIIIIIIIIIIIIIIIIAIIIIIIIIIIIIIIIIIIIII
IIIIIIIIIIIIIIIIIIIIIIIIIIIIIIIIIIIIIIIIAI2IIIIIIIIIIIIIIIIIIIII
IIIIIIIIIIIIIIIIIIIIIIIIIIIIIIIIIIIIIIIIIIIIIIIIIIIAI1IIIIIIIIII
IIIIIIIIIIIIIIIIIIIIIIAIIIIIIIIIIIIIIIIIIIIIIIIIIIIIIIIIIIIIIIII
IIIIIIIIIIIIIIIIIIIIIIIIIIIIIIIIIIIIIIIIIIIIIIAIIIIIIIIIIIIIIIII
IIIIIIIIIIIIIIIIIIIIIIIIIIIIIIIIIIIIIIIIIIIIIIAIIIAIIIIIIIIIIIII
IIIIIIIIIIIAIIIIIIIIIIIIIIIIIIIIIIIIIIIIIIIIIIIIIIIIIIIIIIIIIIII
IIIIIIIIIIIAIIIIIIIIIIIIIIIIIIIIIIIIIIIIIIIIIIIIIIAIIIIIIIIIIIII
IIIIIIIIIIIIIIIIIIIIIIIIIIIIIIIIIIIIIIIIIIAIIIIIIIIIIIIIIIIIIIII
IIIIIIIIIIIIIIIIIIIIIIIIIIIIIIIIIIIIIIIIAIIIIIIIIIIIIIIIIIIIIIII
IIIIIIIIIIIIIIIIIIIIIIIIIIIIIIIIIIIIIIIIIIIIIIIIIIIAIIIIIIIIIIII
IIIIIIIIIIIIIIIIIIIIIIAIIIIIIIIIIIIIIIIIIIIIIIIIIIIIIIIIIIIIIIII
IIIIIIIIIIIIIIIIIIIIIIIIIIIIIIIIIIIIIIIIIIIIIIAIIIIIIIIIIIIIIIII
IIIIIIIIIIIIIIIIIIIIIIIIIIIIIIIIIIIIIIIIIIIIIIAIIIA1I1111111IIII
IIIIIIIIIIIAIIIIIIIIIIIIIIIIIIIIIIIIIIIIIIIIIIIIIIIIIIIIIIIIIIII
IIIIIIIIIIIAIIIIIIIIIIIIIIIIIIIIIIIIIIIIIIIIIIIIIIAIIIIIIIIIIIII
IIIIIIIIIIIIIIIIIIIIIIIIIIIIIIIIIIIIIIIIIIAIIIIIIIIIIIIIIIIIIIII
IIIIIIIIIIIIIIIIIIIIIIIIIIIIIIIIIIIIIIIIAIIIIIIIIIIIIIIIIIIIIIII
IIIIIIIIIIIIIIIIIIIIIIIIIIIIIIIIIIIIIIIIIIIIIIIIIIIAIIIIIIIIIIII
IIIIIIIIIIIIIIIIIIIIIIAI1IIIIIIIIIIIIIIIIIIIIIIIIIIIIIIIIIIIIIII
IIIIIIIIIIIIIIIIIIIIIIIIIIIIIIIIIIIIIIIIIIIIIIAIIIIIIIIIIIIIIIII
IIIIIIIIIIIIIIIIIIIIIIIIIIIIIIIIIIIIIIIIIIIIIIAIIIIIIIIIA2IIIIII
IIIIIIIIIIIAIIIIIIIIIIIIIIIIIIIIIIIIIIIIIIIIIIIIIIIIIIIIIIIIIIII
IIIIIIIIIIIAIIIIIIIIIIIIIIIIIIIIIIIIIIIIIIIIIIIIIIAIIIIIIIIIIIII
IIIIIIIIIIIIIIIIIIIIIIIIIIIIIIIIIIIIIIIIIIAIIIIIIIIIIIIIIIIIIIII
IIIIIIIIIIIIIIIIIIIIIIIIIIIIIIIIIIIIIIIIAI1IIIIIIIIIIIIIIIIIIIII
IIIIIIIIIIIIIIIIIIIIIIIIIIIIIIIIIIIIIIIIIIIIIIIIIIIAI111111IIIII
IIIIIIIIIIIIIIIIIIIIIIAIIIIIIIIIIIIIIIIIIIIIIIIIIIIIIIIIIIIIIIII
IIIIIIIIIIIIIIIIIIIIIIIIIIIIIIIIIIIIIIIIIIIIIIAIIIIIIIIIIIIIIIII
IIIIIIIIIIIIIIIIIIIIIIIIIIIIIIIIIIIIIIIIIIIIIIAIIIIIIIIIIIIIIIIA
IIIIIIIIIIIAIIIIIIIIIIIIIIIIIIIIIIIIIIIIIIIIIIIIIIIIIIIIIIIIIIII
IIIIIIIIIIIAIIIIIIIIIIIIIIIIIIIIIIIIIIIIIIIIIIIIIIAIIIIIIIIIIIII
IIIIIIIIIIIIIIIIIIIIIIIIIIIIIIIIIIIIIIIIIIAIIIIIIIIIIIIIIIIIIIII
IIIIIIIIIIIIIIIIIIIIIIIIIIIIIIIIIIIIIIIIAIIIIIIIIIIIIIIIIIIIIIII
IIIIIIIIIIIIIIIIIIIIIIIIIIIIIIIIIIIIIIIIIIIIIIIIIIIAIIIIIIIIIIII
IIIIIIIIIIIIIIIIIIIIIIAIIIIIIIIIIIIIIIIIIIIIIIIIIIIIIIIIIIIIIIII
IIIIIIIIIIIIIIIIIIIIIIIIIIIIIIIIIIIIIIIIIIIIIIAIIIIIIIIIIIIIIIII
IIIIIIIIIIIAIIIIIIIIIIIIIIIIIIIIIIIIIIIIIIIIIIIIIIIIIIIIIIIIIIII
IIIIIIIIIIIAIIIIIIIIIIIIIIIIIIIIIIIIIIIIIIIIIIIIIIAIIIIIIIIIIIII
IIIIIIIIIIIIIIIIIIIIIIIIIIIIIIIIIIIIIIIIIIAIIII1II2222222IIIIIII
IIIIIIIIIIIIIIIIIIIIIIIIIIIIIIIIIIIIIIIIAI111IIIIIIIIIIIIIIIIIII
IIIIIIIIIIIIIIIIIIIIIIIIIIIIIIIIIIIIIIIIIIIIIIIIIIIAIIIIIIIIIIII
IIIIIIIIIIIIIIIIIIIIIIAIIIIIIIIIIIIIIIIIIIIIIIIIIIIIIIIIIIIIIIII
IIIIIIIIIIIIIIIIIIIIIIIIIIIIIIIIIIIIIIIIIIIIIIAI1IIIIIIIIIIIIIII
IIIIIIIIIIIAIIIIIIIIIIIIIIIIIIIIIIIIIIIIIIIIIIIIIIIIIIIIIIIIIIII
IIIIIIIIIIIAIIIIIIIIIIIIIIIIIIIIIIIIIIIIIIIIIIIIIIAIIIIIIIIIIIII
IIIIIIIIIIIIIIIIIIIIIIIIIIIIIIIIIIIIIIIIIIAIIIIIIIIIIIIIIIIIIIII
IIIIIIIIIIIIIIIIIIIIIIIIIIIIIIIIIIIIIIIIAIIIIIIIIIIIIIIIIIIIIIII
IIIIIIIIIIIIIIIIIIIIIIIIIIIIIIIIIIIIIIIIIIIIIIIIIIIAIIIIIIIIIIII
IIIIIIIIIIIIIIIIIIIIIIAI111111I1111111IIIIIIIIIIIIIIIIIIIIIIIIII
IIIIIIIIIIIIIIIIIIIIIIIIIIIIIIIIIIIIIIIIIIIIIIAIIIIIIIIIIIIIIIII
IIIIIIIIIIIAIIIIIIIIIIIIIIIIIIIIIIIIIIIIIIIIIIIIIIIIIIIIIIIIIIII
IIIIIIIIIIIAIIIIIIIIIIIIIIIIIIIIIIIIIIIIIIIIIIIIIIAIIIIIIIIIIIII
IIIIIIIIIIIIIIIIIIIIIIIIIIIIIIIIIIIIIIIIIIAIIIIIIIIIIIIIIIIIIIII
IIIIIIIIIIIIIIIIIIIIIIIIIIIIIIIIIIIIIIIIAII11111I1IIIIIIIIIIIIII
IIIIIIIIIIIIIIIIIIIIIIIIIIIIIIIIIIIIIIIIIIIIIIIIIIIAIIIIIIIIIIII
IIIIIIIIIIIIIIIIIIIIIIAIIIIIIIIIIIIIIIIIIIIIIIIIIIIAIIIIIIIIIIII
IIIIIIIIIIIIIIIIIIIIIIIIIIIIIIIIIIIIIIIIIIIIIIAI11IIIIIIIIIIIIII
IIIIIIIIIIIAIIIIIIIIIIIIIIIIIIIIIIIIIIIIIIIIIIIIIIIIIIIIIIIIIIII
IIIIIIIIIIIAIIIIIIIIIIIIIIIIIIIIIIIIIIIIIIIIIIIIIIAIIIIIIIIIIIII
IIIIIIIIIIIIIIIIIIIIIIIIIIIIIIIIIIIIIIIIIIAIIIIIIIIIIIIIIIIIIIII
IIIIIIIIIIIIIIIIIIIIIIIIIIIIIIIIIIIIIIIIAII1IIIIIIIIIIIIIIIIIIII
IIIIIIIIIIIIIIIIIIIIIIIIIIIIIIIIIIIIIIIIIIIIIIIIIIIAIIIIIIIIIIII
IIIIIIIIIIIIIIIIIIIIIIAIIIIIIIIIIIIIIIIIIIIIIIIIIIIIIIIIIIIIIIII
IIIIIIIIIIIIIIIIIIIIIIIIIIIIIIIIIIIIIIIIIIIIIIAIIIIIIIIIIIIIIIII
IIIIIIIIIIIAIIIIIIIIIIIIIIIIIIIIIIIIIIIIIIIIIIIIIIIIIIIIIIIIIIII
IIIIIIIIIIIAIIIIIIIIIIIIIIIIIIIIIIIIIIIIIIIIIIIIIIAIIIIIIIIIIIII
IIIIIIIIIIIIIIIIIIIIIIIIIIIIIIIIIIIIIIIIIIAIIII1II2IIIIIIIIIIIII
IIIIIIIIIIIIIIIIIIIIIIIIIIIIIIIIIIIIIIIIAIIIIIIIIIIIIIIIIIIIIIII
IIIIIIIIIIIIIIIIIIIIIIIIIIIIIIIIIIIIIIIIIIIIIIIIIIIAI1IIIIIIIIII
IIIIIIIIIIIIIIIIIIIIIIAIIIIIIIIIIIIIIIIIIIIIIIIIIIIIIIIIIIIIIIII
IIIIIIIIIIIIIIIIIIIIIIIIIIIIIIIIIIIIIIIIIIIIIIAIIIIIIIIIIIIIIIII
IIIIIIIIIIIAIIIIIIIIIIIIIIIIIIIIIIIIIIIIIIIIIIIIIIIIIIIIIIIIIIII
IIIIIIIIIIIAIIIIIIIIIIIIIIIIIIIIIIIIIIIIIIIIIIIIIIAIIIIIIIIIIIII
IIIIIIIIIIIIIIIIIIIIIIIIIIIIIIIIIIIIIIIIIIAIIIIIIIIIIIIIIIIIIIII
IIIIIIIIIIIIIIIIIIIIIIIIIIIIIIIIIIIIIIIIAIIIIIIIIIIIIIIIIIIIIIII
IIIIIIIIIIIIIIIIIIIIIIIIIIIIIIIIIIIIIIIIIIIIIIIIIIIAIIIIIIIIIIII
IIIIIIIIIIIIIIIIIIIIIIAI111111I1111111IIIIIIIIIIIIIIIIIIIIIIIIII
IIIIIIIIIIIIIIIIIIIIIIIIIIIIIIIIIIIIIIIIIIIIIIAIIIIIIIIIIIIIIIII
IIIIIIA2IIIIIIIIIIIIIIIIIIIIIIIIIIIIIIIIIIIIIIAIIIIIIIIIIIIIIIII
IIIIIIIIIIIAIIIIIIIIIIIIIIIIIIIIIIIIIIIIIIIIIIIIIIIIIIIIIIIIIIII
IIIIIIIIIIIAIIIIIIIIIIIIIIIIIIIIIIIIIIIIIIIIIIIIIIAIIIIIIIIIIIII
IIIIIIIIIIIIIIIIIIIIIIIIIIIIIIIIIIIIIIIIIIAIIIIIIIIIIIIIIIIIIIII
IIIIIIIIIIIIIIIIIIIIIIIIIIIIIIIIIIIIIIIIAIIIIIIIIIIIIIIIIIIIIIII
IIIIIIIIIIIIIIIIIIIIIIIIIIIIIIIIIIIIIIIIIIIIIIIIIIIAIIIIIIIIIIII
IIIIIIIIIIIIIIIIIIIIIIAII11111I1111111IIIIIIIIIIIIIIIIIIIIIIIIII
IIIIIIIIIIIIIIIIIIIIIIIIIIIIIIIIIIIIIIIIIIIIIIAIIIIIIIIIIIIIIIII
IIIIIIIIIIIIIIAIIIIIIIIIIIIIIIIIIIIIIIIIIIIIIIAIIIIIIIIIIIIIIIII
IIIIIIIIIIIAIIIIIIIIIIIIIIIIIIIIIIIIIIIIIIIIIIIIIIIIIIIIIIIIIIII
IIIIIIIIIIIAIIIIIIIIIIIIIIIIIIIIIIIIIIIIIIIIIIIIIIAIIIIIIIIIIIII
IIIIIIIIIIIIIIIIIIIIIIIIIIIIIIIIIIIIIIIIIIAIIII1II22222222IIIIII
IIIIIIIIIIIIIIIIIIIIIIIIIIIIIIIIIIIIIIIIAIIIIIIIIIIIIIIIIIIIIIII
IIIIIIIIIIIIIIIIIIIIIIIIIIIIIIIIIIIIIIIIIIIIIIIIIIIAI111111IIIII
IIIIIIIIIIIIIIIIIIIIIIAIIIIIIIIIIIIIIIIIIIIIIIIIIIIIIIIIIIIIIIII
IIIIIIIIIIIIIIIIIIIIIIIIIIIIIIIIIIIIIIIIIIIIIIAIIIIIIIIIIIIIIIII
IIIIIIIIIIIIIIIIA1I1111IIIIIIIIIIIIIIIIIIIIIIIAIIIIIIIIIIIIIIIII
IIIIIIIIIIIAIIIIIIIIIIIIIIIIIIIIIIIIIIIIIIIIIIIIIIIIIIIIIIIIIIII
IIIIIIIIIIIAIIIIIIIIIIIIIIIIIIIIIIIIIIIIIIIIIIIIIIAIIIIIIIIIIIII
IIIIIIIIIIIIIIIIIIIIIIIIIIIIIIIIIIIIIIIIIIAI1IIIIIIIIIIIIIIIIIII
IIIIIIIIIIIIIIIIIIIIIIIIIIIIIIIIIIIIIIIIAI1IIIIIIIIIIIIIIIIIIIII
IIIIIIIIIIIIIIIIIIIIIIIIIIIIIIIIIIIIIIIIIIIIIIIIIIIAIIIIIIIIIIII
IIIIIIIIIIIIIIIIIIIIIIAI111111IIIIIIIIIIIIIIIIIIIIIIIIIIIIIIIIII
IIIIIIIIIIIIIIIIIIIIIIIIIIIIIIIIIIIIIIIIIIIIIIAI1IIIIIIIIIIIIIII
IIIIIIIIIIIIIIIIIIIIIIIIIIIIIIIIIIIIIIIIIIIIIIAI1IIIIIIIIIA2IIII
IIIIIIIIIIIAIIIIIIIIIIIIIIIIIIIIIIIIIIIIIIIIIIIIIIIIIIIIIIIIIIII
IIIIIIIIIIIAIIIIIIIIIIIIIIIIIIIIIIIIIIIIIIIIIIIIIIAIIIIIIIIIIIII
IIIIIIIIIIIIIIIIIIIIIIIIIIIIIIIIIIIIIIIIIIAIIIIIIIIIIIIIIIIIIIII
IIIIIIIIIIIIIIIIIIIIIIIIIIIIIIIIIIIIIIIIAIIIIIIIIIIIIIIIIIIIIIII
IIIIIIIIIIIIIIIIIIIIIIIIIIIIIIIIIIIIIIIIIIIIIIIIIIIAI111111IIIII
IIIIIIIIIIIIIIIIIIIIIIAI111111I1IIIIIIIIIIIIIIIIIIIIIIIIIIIIIIII
IIIIIIIIIIIIIIIIIIIIIIIIIIIIIIIIIIIIIIIIIIIIIIAIIIIIIIIIIIIIIIII
IIIIIIIIIIIIIIIIIIIIIIIIIIIIIIIIIIIIIIIIIIIIIIAIIIIIIIIIIIAIIIII
IIIIIIIIIIIAIIIIIIIIIIIIIIIIIIIIIIIIIIIIIIIIIIIIIIIIIIIIIIIIIIII
IIIIIIIIIIIAIIIIIIIIIIIIIIIIIIIIIIIIIIIIIIIIIIIIIIAIIIIIIIIIIIII
IIIIIIIIIIIIIIIIIIIIIIIIIIIIIIIIIIIIIIIIIIAII1I2II2IIIIIIIIIIIII
IIIIIIIIIIIIIIIIIIIIIIIIIIIIIIIIIIIIIIIIAI2222IIIIIIIIIIIIIIIIII
IIIIIIIIIIIIIIIIIIIIIIIIIIIIIIIIIIIIIIIIIIIIIIIIIIIAI1111IIIIIII
IIIIIIIIIIIIIIIIIIIIIIAIIIIIIIIIIIIIIIIIIIIIIIIIIIIIIIIIIIIIIIII
IIIIIIIIIIIIIIIIIIIIIIIIIIIIIIIIIIIIIIIIIIIIIIA1IIIIIIIIIIIIIIII
IIIIIIIIIIIIIIIIIIIIIIIIIIIIIIIIIIIIIIIIIIIIIIA1IIIIIIIIIIIAIIII
IIIIIIIIIIIAIIIIIIIIIIIIIIIIIIIIIIIIIIIIIIIIIIIIIIIIIIIIIIIIIIII
IIIIIIIIIIIAIIIIIIIIIIIIIIIIIIIIIIIIIIIIIIIIIIIIIIAIIIIIIIIIIIII
IIIIIIIIIIIIIIIIIIIIIIIIIIIIIIIIIIIIIIIIIIIAIIIIIIIIIIIIIIIIIIII
IIIIIIIIIIIIIIIIIIIIIIIIIIIIIIIIIIIIIIIIAI2IIIIIIIIIIIIIIIIIIIII
IIIIIIIIIIIIIIIIIIIIIIIIIIIIIIIIIIIIIIIIIIIIIIIIIIIAI111IIIIIIII
IIIIIIIIIIIIIIIIIIIIIIAIIIIIIIIIIIIIIIIIIIIIIIIIIIIIIIIIIIIIIIII
IIIIIIIIIIIIIIIIIIIIIIIIIIIIIIIIIIIIIIIIIIIIIIAIIIIIIIIIIIIIIIII
IIIIIIIIIIIIIIIIIIIIIIIIIIIIIIIIIIIIIIIIIIIIIIAIIIIIIIIIIIIAIIII
IIIIIIIIIAIIIIIIIIIIIIIIIIIIIIIIIIIIIIIIIIIIIIIIIIIIIIIIIIIIIIII
IIIIIIIIIIIAIIIIIIIIIIIIIIIIIIIIIIIIIIIIIIIIIIIIIIIIIIIIIIIIIIII
IIIIIIIIIIIAIIIIIIIIIIIIIIIIIIIIIIIIIIIIIIIIIIIIIIAIIIIIIIIIIIII
IIIIIIIIIIIIIIIIIIIIIIIIIIIIIIIIIIIIIIIIIIIIIIAIIIIIIIIIIIIIIIII
IIIIIIIIIIIIIIIIIIIIIIIIIIIIIIIIIIIIIIIIAIIIIIIIIIIIIIIIIIIIIIII
IIIIIIIIIIIIIIIIIIIIIIIIIIIIIIIIIIIIIIIIIIIIIIIIIIIAIIIIIIIIIIII
IIIIIIIIIIIIIIIIIIIIIIAIIIIIIIIIIIIIIIIIIIIIIIIIIIIIIIIIIIIIIIII
IIIIIIIIIIIIIIIIIIIIIIIIIIIIIIIIIIIIIIIIIIIIIIA2IIIIIIIIIIIIIIII
IIIIIIIIIAIIIIIIIIIIIIIIIIIIIIIIIIIIIIIIIIIIIIIIIIIIIIIIIIIIIIII
IIIIIIIIIIIAIIIIIIIIIIIIIIIIIIIIIIIIIIIIIIIIIIIIIIIIIIIIIIIIIIII
IIIIIIIIIIIAIIIIIIIIIIIIIIIIIIIIIIIIIIIIIIIIIIIIIIAIIIIIIIIIIIII
IIIIIIIIIIIIIIIIIIIIIIIIIIIIIIIIIIIIIIIIIIIIIIAIIIIIIIIIIIIIIIII
IIIIIIIIIIIIIIIIIIIIIIIIIIIIIIIIIIIIIIIIAII2IIIIIIIIIIIIIIIIIIII
IIIIIIIIIIIIIIIIIIIIIIIIIIIIIIIIIIIIIIIIIIIIIIIIIIIAIIIIIIIIIIII
IIIIIIIIIIIIIIIIIIIIIIAIIIIIIIIIIIIIIIIIIIIIIIIIIIIIIIIIIIIIIIII
IIIIIIIIIIIIIIIIIIIIIIIIIIIIIIIIIIIIIIIIIIIIIIAIIIIIIIIIIIIIIIII
IIIIIIIIIAI1111111IIIIIIIIIIIIIIIIIIIIIIIIIIIIIIIIIIIIIIIIIIIIII
IIIIIIIIIIIAIIIIIIIIIIIIIIIIIIIIIIIIIIIIIIIIIIIIIIIIIIIIIIIIIIII
IIIIIIIIIIIAIIIIIIIIIIIIIIIIIIIIIIIIIIIIIIIIIIIIIIAI111111I11III
IIIIIIIIIIIIIIIIIIIIIIIIIIIIIIIIIIIIIIIIIIIIIIIIAIIII1II22222222
IIIIIIIIIIIIIIIIIIIIIIIIIIIIIIIIIIIIIIIIAI111111I11IIIIIIIIIIIII
IIIIIIIIIIIIIIIIIIIIIIIIIIIIIIIIIIIIIIIIIIIIIIIIIIIAIIIIIIIIIIII
IIIIIIIIIIIIIIIIIIIIIIAIIIIIIIIIIIIIIIIIIIIIIIIIIIIIIIIIIIIIIIII
IIIIIIIIIIIIIIIIIIIIIIIIIIIIIIIIIIIIIIIIIIIIIIAIIIIIIIIIIIIIIIII
IIIIIIIIIAI111111I11111111IIIIIIIIIIIIIIIIIIIIIIIIIIIIIIIIIIIIII
IIIIIIIIIIIAIIIIIIIIIIIIIIIIIIIIIIIIIIIIIIIIIIIIIIIIIIIIIIIIIIII
IIIIIIIIIIIAIIIIIIIIIIIIIIIIIIIIIIIIIIIIIIIIIIIIIIAIIIIIIIIIIIII
IIIIIIIIIIIIIIIIIIIIIIIIIIIIIIIIIIIIIIIIIIIIIIIIAIIIIIIIIIIIIIII
IIIIIIIIIIIIIIIIIIIIIIIIIIIIIIIIIIIIIIIIAIIIIIIIIIIIIIIIIIIIIIII
IIIIIIIIIIIIIIIIIIIIIIIIIIIIIIIIIIIIIIIIIIIIIIIIIIIAIIIIIIIIIIII
IIIIIIIIIIIIIIIIIIIIIIAIIIIIIIIIIIIIIIIIIIIIIIIIIIIIIIIIIIIIIIII
IIIIIIIIIIIIIIIIIIIIIIIIIIIIIIIIIIIIIIIIIIIIIIAIIIIIIIIIIIIIIIII
IIIIIIIIIAIIIIIIIIIIIIIIIIIIIIIIIIIIIIIIIIIIIIIIIIIIIIIIIIIIIIII
IIIIIIIIIIIAIIIIIIIIIIIIIIIIIIIIIIIIIIIIIIIIIIIIIIIIIIIIIIIIIIII
IIIIIIIIIIIAIIIIIIIIIIIIIIIIIIIIIIIIIIIIIIIIIIIIIIAIIIIIIIIIIIII
IIIIIIIIIIIIIIIIIIIIIIIIIIIIIIIIIIIIIIIIIIIIIIIIIIAIIIIIIIIIIIII
IIIIIIIIIIIIIIIIIIIIIIIIIIIIIIIIIIIIIIIIAIIIIIIIIIIIIIIIIIIIIIII
IIIIIIIIIIIIIIIIIIIIIIIIIIIIIIIIIIIIIIIIIIIIIIIIIIIAIIIIIIIIIIII
IIIIIIIIIIIIIIIIIIIIIIAI111111I11111IIIIIIIIIIIIIIIIIIIIIIIIIIII
IIIIIIIIIIIIIIIIIIIIIIIIIIIIIIIIIIIIIIIIIIIIIIAIIIIIIIIIIIIIIIII
IIIIIIIIIAIIIIIIIIIIIIIIIIIIIIIIIIIIIIIIIIIIIIIIIIIIIIIIIIIIIIII
IIIIIIIIIIIAIIIIIIIIIIIIIIIIIIIIIIIIIIIIIIIIIIIIIIIIIIIIIIIIIIII
IIIIIIIIIIIAIIIIIIIIIIIIIIIIIIIIIIIIIIIIIIIIIIIIIIAIIIIIIIIIIIII
IIIIIIIIIIIIIIIIIIIIIIIIIIIIIIIIIIIIIIIIIIIIIIIIIIIAII1I1II2222I
IIIIIIIIIIIIIIIIIIIIIIIIIIIIIIIIIIIIIIIIAIIIIIIIIIIIIIIIIIIIIIII
IIIIIIIIIIIIIIIIIIIIIIIIIIIIIIIIIIIIIIIIIIIIIIIIIIIAIIIIIIIIIIII
IIIIIIIIIIIIIIIIIIIIIIAIIIIIIIIIIIIIIIIIIIIIIIIIIIIIIIIIIIIIIIII
IIIIIIIIIIIIIIIIIIIIIIIIIIIIIIIIIIIIIIIIIIIIIIAIIIIIIIIIIIIIIIII
IIIIIIIIIAI1111IIIIIIIIIIIIIIIIIIIIIIIIIIIIIIIIIIIIIIIIIIIIIIIII
IIIIIIIIIIIAIIIIIIIIIIIIIIIIIIIIIIIIIIIIIIIIIIIIIIIIIIIIIIIIIIII
IIIIIIIIIIIAIIIIIIIIIIIIIIIIIIIIIIIIIIIIIIIIIIIIIIAIIIIIIIIIIIII
IIIIIIIIIIIIIIIIIIIIIIIIIIIIIIIIIIIIIIIIIIIIIIIIIIIAI1II112222I2
IIIIIIIIIIIIIIIIIIIIIIIIIIIIIIIIIIIIIIIIAII1IIIIIIIIIIIIIIIIIIII
IIIIIIIIIIIIIIIIIIIIIIIIIIIIIIIIIIIIIIIIIIIIIIIIIIIAIIIIIIIIIIII
IIIIIIIIIIIIIIIIIIIIIIAI111IIIIIIIIIIIIIIIIIIIIIIIIIIIIIIIIIIIII
IIIIIIIIIIIIIIIIIIIIIIIIIIIIIIIIIIIIIIIIIIIIIIAIIIIIIIIIIIIIIIII
IIIIIIIIIAI111IIIIIIIIIIIIIIIIIIIIIIIIIIIIIIIIIIIIIIIIIIIIIIIIII
IIIIIIIIIIIAIIIIIIIIIIIIIIIIIIIIIIIIIIIIIIIIIIIIIIIIIIIIIIIIIIII
IIIIIIIIIIIAIIIIIIIIIIIIIIIIIIIIIIIIIIIIIIIIIIIIIIAIIIIIIIIIIIII
IIIIIIIIIIIIIIIIIIIIIIIIIIIIIIIIIIIIIIIIIIIIIIIIIIIIIIIAIIIIIIII
IIIIIIIIIIIIIIIIIIIIIIIIIIIIIIIIIIIIIIIIAII1IIIIIIIIIIIIIIIIIIII
IIIIIIIIIIIIIIIIIIIIIIIIIIIIIIIIIIIIIIIIIIIIIIIIIIIAI111111I1111
IIIIIIIIIIIIIIIIIIIIIIAI111111I1IIIIIIIIIIIIIIIIIIIIIIIIIIIIIIII
IIIIIIIIIIIIIIIIIIIIIIIIIIIIIIIIIIIIIIIIIIIIIIAIIIIIIIIIIIIIIIII
IIIIIIIIIAIIIIIIIIIIIIIIIIIIIIIIIIIIIIIIIIIIIIIIIIIIIIIIIIIIIIII
IIIIIIIIIIIAIIIIIIIIIIIIIIIIIIIIIIIIIIIIIIIIIIIIIIIIIIIIIIIIIIII
IIIIIIIIIIIAIIIIIIIIIIIIIIIIIIIIIIIIIIIIIIIIIIIIIIAIIIIIIIIIIIII
IIIIIIIIIIIIIIIIIIIIIIIIIIIIIIIIIIIIIIIIIIIIIIIIIIIIIIIAIIIIIIII
IIIIIIIIIIIIIIIIIIIIIIIIIIIIIIIIIIIIIIIIAI11IIIIIIIIIIIIIIIIIIII
IIIIIIIIIIIIIIIIIIIIIIIIIIIIIIIIIIIIIIIIIIIIIIIIIIIAIIIIIIIIIIII
IIIIIIIIIIIIIIIIIIIIIIAIIIIIIIIIIIIIIIIIIIIIIIIIIIIIIIIIIIIIIIII
IIIIIIIIIIIIIIIIIIIIIIIIIIIIIIIIIIIIIIIIIIIIIIAIIIIIIIIIIIIIIIII
IIIIIIIIIAIIIIIIIIIIIIIIIIIIIIIIIIIIIIIIIIIIIIIIIIIIIIIIIIIIIIII
IIIIIIIIIIIAIIIIIIIIIIIIIIIIIIIIIIIIIIIIIIIIIIIIIIIIIIIIIIIIIIII
IIIIIIIIIIIAIIIIIIIIIIIIIIIIIIIIIIIIIIIIIIIIIIIIIIAIIIIIIIIIIIII
IIIIIIIIIIIIIIIIIIIIIIIIIIIIIIIIIIIIIIIIIIIIIIIIIIIIIIIIIIAIIIII
IIIIIIIIIIIIIIIIIIIIIIIIIIIIIIIIIIIIIIIIAIIIIIIIIIIIIIIIIIIIIIII
IIIIIIIIIIIIIIIIIIIIIIIIIIIIIIIIIIIIIIIIIIIIIIIIIIIAIIIIIIIIIIII
IIIIIIIIIIIIIIIIIIIIIIAIIIIIIIIIIIIIIIIIIIIIIIIIIIIIIIIIIIIIIIII
IIIIIIIIIIIIIIIIIIIIIIIIIIIIIIIIIIIIIIIIIIIIIIA2IIIIIIIIIIIIIIII
IIIIIIIIIAIIIIIIIIIIIIIIIIIIIIIIIIIIIIIIIIIIIIIIIIIIIIIIIIIIIIII
IIIIIIIIIIIAIIIIIIIIIIIIIIIIIIIIIIIIIIIIIIIIIIIIIIIIIIIIIIIIIIII
IIIIIIIIIIIAIIIIIIIIIIIIIIIIIIIIIIIIIIIIIIIIIIIIIIAIIIIIIIIIIIII
IIIIIIIIIIIIIIIIIIIIIIIIIIIIIIIIIIIIIIIIIIIIIIIIIIIIIIIIIIAIIII1
IIIIIIIIIIIIIIIIIIIIIIIIIIIIIIIIIIIIIIIIAI22IIIIIIIIIIIIIIIIIIII
IIIIIIIIIIIIIIIIIIIIIIIIIIIIIIIIIIIIIIIIIIIIIIIIIIIAIIIIIIIIIIII
IIIIIIIIIIIIIIIIIIIIIIAIIIIIIIIIIIIIIIIIIIIIIIIIIIIIIIIIIIIIIIII
IIIIIIIIIIIIIIIIIIIIIIIIIIIIIIIIIIIIIIIIIIIIIIAIIIIIIIIIIIIIIIII
IIIIIIIIIAIIIIIIIIIIIIIIIIIIIIIIIIIIIIIIIIIIIIIIIIIIIIIIIIIIIIII
IIIIIIIIIIIAIIIIIIIIIIIIIIIIIIIIIIIIIIIIIIIIIIIIIIIIIIIIIIIIIIII
IIIIIIIIIIIAIIIIIIIIIIIIIIIIIIIIIIIIIIIIIIIIIIIIIIAIIIIIIIIIIIII
IIIIIIIIIIIIIIIIIIIIIIIIIIIIIIIIIIIIIIIIIIIIIIIIIIIIIIIIIIIAIIII
IIIIIIIIIIIIIIIIIIIIIIIIIIIIIIIIIIIIIIIIAIIIIIIIIIIIIIIIIIIIIIII
IIIIIIIIIIIIIIIIIIIIIIIIIIIIIIIIIIIIIIIIIIIIIIIIIIIAIIIIIIIIIIII
IIIIIIIIIIIIIIIIIIIIIIAI111111IIIIIIIIIIIIIIIIIIIIIIIIIIIIIIIIII
IIIIIIIIIIIIIIIIIIIIIIIIIIIIIIIIIIIIIIIIIIIIIIA2IIIIIIIIIIIIIIII
IIIIIIIIIAIIIIIIIIIIIIIIIIIIIIIIIIIIIIIIIIIIIIIIIIIIIIIIIIIIIIII
IIIIIIIIIIIAIIIIIIIIIIIIIIIIIIIIIIIIIIIIIIIIIIIIIIIIIIIIIIIIIIII
IIIIIIIIIIIAIIIIIIIIIIIIIIIIIIIIIIIIIIIIIIIIIIIIIIAIIIIIIIIIIIII
IIIIIIIIIIIIIIIIIIIIIIIIIIIIIIIIIIIIIIIIIIIIIIIIIIIIIIIIIIIIIAII
IIIIIIIIIIIIIIIIIIIIIIIIIIIIIIIIIIIIIIIIAIIIIIIIIIIIIIIIIIIIIIII
IIIIIIIIIIIIIIIIIIIIIIIIIIIIIIIIIIIIIIIIIIIIIIIIIIIAII1IIIIIIIII
IIIIIIIIIIIIIIIIIIIIIIAII1111111111IIIIIIIIIIIIIIIIIIIIIIIIIIIII
IIIIIIIIIIIIIIIIIIIIIIIIIIIIIIIIIIIIIIIIIIIIIIA1I2IIIIIIIIIIIIII
IIIIIIIIIAIIIIIIIIIIIIIIIIIIIIIIIIIIIIIIIIIIIIIIIIIIIIIIIIIIIIII
[MLOP] Prefetch Degree Mean: 5.94129
[MLOP] Prefetch Degree SD: 5.83946
[MLOP] Max Score Left Mean (%): 25.085
[MLOP] Max Score Left SD (%): 19.3216
[MLOP] Max Score Right Mean (%): 39.7104
[MLOP] Max Score Right SD (%): 18.9171

DRAM Statistics
 CHANNEL 0
 RQ ROW_BUFFER_HIT:    1684098  ROW_BUFFER_MISS:    6887101
 DBUS_CONGESTED:        679
 WQ ROW_BUFFER_HIT:      13277  ROW_BUFFER_MISS:      43026  FULL:          0

 AVG_CONGESTED_CYCLE: 4
 All warmup complete: 2
Channel 0 Bank busy for read cycles: 0
Channel 0 Bank busy for write cycles: 0
Channel 0
Rank 0
0banks busy for read cycles: 51204063
0banks busy for write cycles: 13069
1banks busy for read cycles: 49170667
1banks busy for write cycles: 4723707
2banks busy for read cycles: 33358025
2banks busy for write cycles: 2245130
3banks busy for read cycles: 27925588
3banks busy for write cycles: 1299329
4banks busy for read cycles: 28203169
4banks busy for write cycles: 775369
5banks busy for read cycles: 31387053
5banks busy for write cycles: 497382
6banks busy for read cycles: 33190457
6banks busy for write cycles: 345552
7banks busy for read cycles: 32306023
7banks busy for write cycles: 268994
8banks busy for read cycles: 27862147
8banks busy for write cycles: 684641

CPU 0 Branch Prediction Accuracy: 96.256% MPKI: 11.3017 Average ROB Occupancy at Mispredict: 45.5678
Branch types
NOT_BRANCH: 34906676 69.8134%
BRANCH_DIRECT_JUMP: 1899351 3.7987%
BRANCH_INDIRECT: 0 0%
BRANCH_CONDITIONAL: 12769932 25.5399%
BRANCH_DIRECT_CALL: 195242 0.390484%
BRANCH_INDIRECT_CALL: 16752 0.033504%
BRANCH_RETURN: 211994 0.423988%
BRANCH_OTHER: 0 0%

DRAM PAGES: 1048576
Allocated PAGES: 86300
