Initialize SIGNATURE TABLE
ST_SET: 1
ST_WAY: 256
ST_TAG_BIT: 16
ST_TAG_MASK: ffff

Initialize PATTERN TABLE
PT_SET: 512
PT_WAY: 4
SIG_DELTA_BIT: 7
C_SIG_BIT: 4
C_DELTA_BIT: 4

Initialize PREFETCH FILTER
FILTER_SET: 1024

*** ChampSim Multicore Out-of-Order Simulator ***

Warmup Instructions: 50000000
Simulation Instructions: 50000000
Number of CPUs: 1
LLC sets: 2048
LLC ways: 16
Off-chip DRAM Size: 4096 MB Channels: 1 Width: 64-bit Data Rate: 6400 MT/s
CPU 0 runs ./tracer/traces/607.cactuBSSN_s-3477B.champsimtrace.xz
.xz
CPU 0 Bimodal branch predictor
BTB has LRU replacement policy
ITLB has LRU replacement policy
DTLB has LRU replacement policy
STLB has LRU replacement policy
L1I has LRU replacement policy
CPU 0 L1D Berti prefetcher
L1D has LRU replacement policy
ST_WAYS: 256
PT_SETS: 512
L2C has LRU replacement policy
LLC has LRU replacement policy
Heartbeat CPU 0 instructions: 10000000 cycles: 3665293 heartbeat IPC: 2.72829 cumulative IPC: 2.72829 (Simulation time: 0 hr 1 min 10 sec) 
Heartbeat CPU 0 instructions: 20000003 cycles: 7330330 heartbeat IPC: 2.72849 cumulative IPC: 2.72839 (Simulation time: 0 hr 2 min 33 sec) 
Heartbeat CPU 0 instructions: 30000000 cycles: 10994609 heartbeat IPC: 2.72905 cumulative IPC: 2.72861 (Simulation time: 0 hr 4 min 37 sec) 
Heartbeat CPU 0 instructions: 40000003 cycles: 14658770 heartbeat IPC: 2.72914 cumulative IPC: 2.72874 (Simulation time: 0 hr 6 min 47 sec) 
Heartbeat CPU 0 instructions: 50000000 cycles: 18324979 heartbeat IPC: 2.72761 cumulative IPC: 2.72852 (Simulation time: 0 hr 8 min 25 sec) 

Warmup complete CPU 0 instructions: 50000004 cycles: 18324980 (Simulation time: 0 hr 8 min 25 sec) 

Heartbeat CPU 0 instructions: 60000000 cycles: 29399739 heartbeat IPC: 0.902954 cumulative IPC: 0.902954 (Simulation time: 0 hr 10 min 1 sec) 
Heartbeat CPU 0 instructions: 70000001 cycles: 40499821 heartbeat IPC: 0.900894 cumulative IPC: 0.901923 (Simulation time: 0 hr 11 min 39 sec) 
Heartbeat CPU 0 instructions: 80000001 cycles: 51604880 heartbeat IPC: 0.90049 cumulative IPC: 0.901445 (Simulation time: 0 hr 13 min 24 sec) 
Heartbeat CPU 0 instructions: 90000002 cycles: 62693505 heartbeat IPC: 0.901825 cumulative IPC: 0.90154 (Simulation time: 0 hr 14 min 59 sec) 
Heartbeat CPU 0 instructions: 100000000 cycles: 73766790 heartbeat IPC: 0.903074 cumulative IPC: 0.901846 (Simulation time: 0 hr 16 min 27 sec) 
Finished CPU 0 instructions: 50000000 cycles: 55441811 cumulative IPC: 0.901846 (Simulation time: 0 hr 16 min 27 sec) 

ChampSim completed all CPUs

Region of Interest Statistics

CPU 0 cumulative IPC: 0.901846 instructions: 50000000 cycles: 55441811
ITLB TOTAL     ACCESS:    6969241  HIT:    6969241  MISS:          0  HIT %:        100  MISS %:          0   MPKI: 0
ITLB LOAD TRANSLATION ACCESS:    6969241  HIT:    6969241  MISS:          0  HIT %:        100  MISS %:          0   MPKI: 0
ITLB PREFETCH  REQUESTED:          0  ISSUED:          0  USEFUL:          0  USELESS:          0
ITLB USEFUL LOAD PREFETCHES:          0 PREFETCH ISSUED TO LOWER LEVEL:          0  ACCURACY: -nan
ITLB TIMELY PREFETCHES:          0 LATE PREFETCHES: 0 DROPPED PREFETCHES: 0
ITLB PREFETCHES SAME FILL-ORIGIN LEVEL: 0 DIFFERENT FILL-ORIGIN LEVEL: 0
ITLB AVERAGE MISS LATENCY: -nan cycles
ITLB RQ	ACCESS:    8541075	FORWARD:          0	MERGED:    1571834	TO_CACHE:    6969241

DTLB TOTAL     ACCESS:   15034613  HIT:   13141974  MISS:    1892639  HIT %:    87.4115  MISS %:    12.5885   MPKI: 37.8528
DTLB LOAD TRANSLATION ACCESS:   15034613  HIT:   13141974  MISS:    1892639  HIT %:    87.4115  MISS %:    12.5885   MPKI: 37.8528
DTLB PREFETCH  REQUESTED:          0  ISSUED:          0  USEFUL:          0  USELESS:          0
DTLB USEFUL LOAD PREFETCHES:          0 PREFETCH ISSUED TO LOWER LEVEL:          0  ACCURACY: -nan
DTLB TIMELY PREFETCHES:          0 LATE PREFETCHES: 0 DROPPED PREFETCHES: 0
DTLB PREFETCHES SAME FILL-ORIGIN LEVEL: 0 DIFFERENT FILL-ORIGIN LEVEL: 0
DTLB AVERAGE MISS LATENCY: 10.1356 cycles
DTLB RQ	ACCESS:   19720980	FORWARD:          0	MERGED:    4492165	TO_CACHE:   15228815

STLB TOTAL     ACCESS:    8758331  HIT:    8756303  MISS:       2028  HIT %:    99.9768  MISS %:  0.0231551   MPKI: 0.04056
STLB LOAD TRANSLATION ACCESS:    1892639  HIT:    1890611  MISS:       2028  HIT %:    99.8928  MISS %:   0.107152   MPKI: 0.04056
STLB TRANSLATION FROM L1D PREFETCHER ACCESS:    6865692  HIT:    6865692  MISS:          0  HIT %:        100  MISS %:          0   MPKI: 0
STLB PREFETCH  REQUESTED:          0  ISSUED:          0  USEFUL:          0  USELESS:          0
STLB USEFUL LOAD PREFETCHES:          0 PREFETCH ISSUED TO LOWER LEVEL:          0  ACCURACY: -nan
STLB TIMELY PREFETCHES:          0 LATE PREFETCHES: 0 DROPPED PREFETCHES: 0
STLB PREFETCHES SAME FILL-ORIGIN LEVEL: 0 DIFFERENT FILL-ORIGIN LEVEL: 0
STLB AVERAGE MISS LATENCY: 566.228 cycles
STLB RQ	ACCESS:   12831307	FORWARD:          0	MERGED:    4072977	TO_CACHE:    8758330

STLB Hit, L1D data hit: 0
STLB Hit, L2C data hit: 0
STLB Hit, LLC data hit: 0
STLB Hit, LLC data miss: 0
STLB STLB hints to L2: 0
L1D TOTAL     ACCESS:   30351173  HIT:   25874590  MISS:    4476583  HIT %:    85.2507  MISS %:    14.7493   MPKI: 89.5317
L1D LOAD      ACCESS:   15664302  HIT:   12499919  MISS:    3164383  HIT %:    79.7988  MISS %:    20.2012   MPKI: 63.2877
L1D RFO       ACCESS:    3956439  HIT:    3658124  MISS:     298315  HIT %:      92.46  MISS %:    7.53999   MPKI: 5.9663
L1D PREFETCH  ACCESS:   10730432  HIT:    9716547  MISS:    1013885  HIT %:    90.5513  MISS %:    9.44869   MPKI: 20.2777
AGUS PREFETCH L1 MISS: 0
L1D PREFETCH  REQUESTED:   22503380  ISSUED:   22503380  USEFUL:     427512  USELESS:     586403
L1D USEFUL LOAD PREFETCHES:     427512 PREFETCH ISSUED TO LOWER LEVEL:    1128853  ACCURACY: 37.8714
L1D TIMELY PREFETCHES:     427512 LATE PREFETCHES: 66111 DROPPED PREFETCHES: 0
L1D PREFETCHES SAME FILL-ORIGIN LEVEL: 1128853 DIFFERENT FILL-ORIGIN LEVEL: 0
L1D AVERAGE MISS LATENCY: 680265 cycles
L1D RQ	ACCESS:   19350052	FORWARD:          0	MERGED:    3592554	TO_CACHE:   15744129
L1D WQ	ACCESS:    4003964	FORWARD:      17697	MERGED:      27113	TO_CACHE:    3976851
L1D PQ	ACCESS:   11564712	FORWARD:          0	MERGED:     621716	TO_CACHE:   10938668

L1D UNIQUE REGIONS ACCESSED: 0
L1D REGIONS CONFLICTS: 0
L1D Cross Page Prefetch Requests: 0
L1D Same Page Prefetch Requests: 22160075
L1D ROI Sum of L1D PQ occupancy: 141853149
L1D PREFETCHES PUSHED FROM L2C: 0
L1I TOTAL     ACCESS:    7804514  HIT:    6358416  MISS:    1446098  HIT %:     81.471  MISS %:     18.529   MPKI: 28.922
L1I LOAD      ACCESS:    7804514  HIT:    6358416  MISS:    1446098  HIT %:     81.471  MISS %:     18.529   MPKI: 28.922
L1I PREFETCH  REQUESTED:          0  ISSUED:          0  USEFUL:          0  USELESS:          0
L1I USEFUL LOAD PREFETCHES:          0 PREFETCH ISSUED TO LOWER LEVEL:          0  ACCURACY: -nan
L1I TIMELY PREFETCHES:          0 LATE PREFETCHES: 0 DROPPED PREFETCHES: 0
L1I PREFETCHES SAME FILL-ORIGIN LEVEL: 0 DIFFERENT FILL-ORIGIN LEVEL: 0
L1I AVERAGE MISS LATENCY: 14.0609 cycles
L1I RQ	ACCESS:   11855516	FORWARD:          0	MERGED:    3314441	TO_CACHE:    8541075

BTB TOTAL     ACCESS:     280232  HIT:     262131  MISS:      18101  HIT %:    93.5407  MISS %:    6.45929   MPKI: 0.36202
BTB BRANCH_DIRECT_JUMP	ACCESS:      54228  HIT:      54223  MISS:          5
BTB BRANCH_INDIRECT	ACCESS:       9038  HIT:       9037  MISS:          1
BTB BRANCH_CONDITIONAL	ACCESS:     108510  HIT:     108499  MISS:         11
BTB BRANCH_DIRECT_CALL	ACCESS:      54228  HIT:      54223  MISS:          5
BTB BRANCH_INDIRECT_CALL	ACCESS:          0  HIT:          0  MISS:          0
BTB BRANCH_RETURN	ACCESS:      54228  HIT:      36149  MISS:      18079
BTB BRANCH_OTHER ACCESS:           0  HIT:          0  MISS:          0

L2C TOTAL     ACCESS:    8181011  HIT:    7837866  MISS:     343145  HIT %:    95.8056  MISS %:    4.19441   MPKI: 6.8629
L2C LOAD      ACCESS:    4543886  HIT:    4361774  MISS:     182112  HIT %:    95.9922  MISS %:    4.00785   MPKI: 3.64224
L2C DATA LOAD MPKI: 3.64224
L2C INSTRUCTION LOAD MPKI: 0
L2C RFO       ACCESS:     298000  HIT:     268749  MISS:      29251  HIT %:    90.1842  MISS %:    9.81577   MPKI: 0.58502
L2C PREFETCH  ACCESS:    2996990  HIT:    2868264  MISS:     128726  HIT %:    95.7048  MISS %:    4.29518   MPKI: 2.57452
AGUS PREFETCH L1 MISS: 0
L2C DATA PREFETCH MPKI: 2.57452
L2C INSTRUCTION PREFETCH MPKI: 0
L2C WRITEBACK ACCESS:     339072  HIT:     338990  MISS:         82  HIT %:    99.9758  MISS %:  0.0241837   MPKI: 0.00164
L2C LOAD TRANSLATION ACCESS:       3063  HIT:         89  MISS:       2974  HIT %:    2.90565  MISS %:    97.0944   MPKI: 0.05948
L2C PREFETCH  REQUESTED:    2612302  ISSUED:    2570490  USEFUL:      86885  USELESS:      41791
L2C USEFUL LOAD PREFETCHES:      86885 PREFETCH ISSUED TO LOWER LEVEL:     472407  ACCURACY: 18.392
L2C TIMELY PREFETCHES:      86885 LATE PREFETCHES: 2 DROPPED PREFETCHES: 0
L2C PREFETCHES SAME FILL-ORIGIN LEVEL: 11250 DIFFERENT FILL-ORIGIN LEVEL: 343679
L2C AVERAGE MISS LATENCY: 108.303 cycles
L2C RQ	ACCESS:    4845732	FORWARD:          0	MERGED:          0	TO_CACHE:    4844949
L2C WQ	ACCESS:     339072	FORWARD:       1070	MERGED:          0	TO_CACHE:     339072
L2C PQ	ACCESS:    3650499	FORWARD:          0	MERGED:     287423	TO_CACHE:    3362789

L2C Instructions Evicting Data 0
L2C Translations Evicting Data 2942
L2C Data Evicting Data 337121
L2C Instructions Evicting Instructions 0
L2C Translations Evicting Instructions 0
L2C Data Evicting Instructions 0
L2C Instructions Evicting Translations 0
L2C Translations Evicting Translations 32
L2C Data Evicting Translations 2968
L2C Dense regions hint from L2: 0
PSCL5 TOTAL     ACCESS:       2028  HIT:       2028  MISS:          0  HIT %:        100  MISS %:          0   MPKI: 0
PSCL5 LOAD TRANSLATION ACCESS:       2028  HIT:       2028  MISS:          0  HIT %:        100  MISS %:          0   MPKI: 0
PSCL5 PREFETCH  REQUESTED:          0  ISSUED:          0  USEFUL:          0  USELESS:          0
PSCL5 USEFUL LOAD PREFETCHES:          0 PREFETCH ISSUED TO LOWER LEVEL:          0  ACCURACY: -nan
PSCL5 TIMELY PREFETCHES:          0 LATE PREFETCHES: 0 DROPPED PREFETCHES: 0
PSCL5 PREFETCHES SAME FILL-ORIGIN LEVEL: 0 DIFFERENT FILL-ORIGIN LEVEL: 0

PSCL4 TOTAL     ACCESS:       2028  HIT:       2028  MISS:          0  HIT %:        100  MISS %:          0   MPKI: 0
PSCL4 LOAD TRANSLATION ACCESS:       2028  HIT:       2028  MISS:          0  HIT %:        100  MISS %:          0   MPKI: 0
PSCL4 PREFETCH  REQUESTED:          0  ISSUED:          0  USEFUL:          0  USELESS:          0
PSCL4 USEFUL LOAD PREFETCHES:          0 PREFETCH ISSUED TO LOWER LEVEL:          0  ACCURACY: -nan
PSCL4 TIMELY PREFETCHES:          0 LATE PREFETCHES: 0 DROPPED PREFETCHES: 0
PSCL4 PREFETCHES SAME FILL-ORIGIN LEVEL: 0 DIFFERENT FILL-ORIGIN LEVEL: 0

PSCL3 TOTAL     ACCESS:       2028  HIT:       2028  MISS:          0  HIT %:        100  MISS %:          0   MPKI: 0
PSCL3 LOAD TRANSLATION ACCESS:       2028  HIT:       2028  MISS:          0  HIT %:        100  MISS %:          0   MPKI: 0
PSCL3 PREFETCH  REQUESTED:          0  ISSUED:          0  USEFUL:          0  USELESS:          0
PSCL3 USEFUL LOAD PREFETCHES:          0 PREFETCH ISSUED TO LOWER LEVEL:          0  ACCURACY: -nan
PSCL3 TIMELY PREFETCHES:          0 LATE PREFETCHES: 0 DROPPED PREFETCHES: 0
PSCL3 PREFETCHES SAME FILL-ORIGIN LEVEL: 0 DIFFERENT FILL-ORIGIN LEVEL: 0

PSCL2 TOTAL     ACCESS:       2028  HIT:        989  MISS:       1039  HIT %:    48.7673  MISS %:    51.2327   MPKI: 0.02078
PSCL2 LOAD TRANSLATION ACCESS:       2028  HIT:        989  MISS:       1039  HIT %:    48.7673  MISS %:    51.2327   MPKI: 0.02078
PSCL2 PREFETCH  REQUESTED:          0  ISSUED:          0  USEFUL:          0  USELESS:          0
PSCL2 USEFUL LOAD PREFETCHES:          0 PREFETCH ISSUED TO LOWER LEVEL:          0  ACCURACY: -nan
PSCL2 TIMELY PREFETCHES:          0 LATE PREFETCHES: 0 DROPPED PREFETCHES: 0
PSCL2 PREFETCHES SAME FILL-ORIGIN LEVEL: 0 DIFFERENT FILL-ORIGIN LEVEL: 0

LLC TOTAL     ACCESS:     711249  HIT:     580901  MISS:     130348  HIT %:    81.6734  MISS %:    18.3266   MPKI: 2.60696
LLC LOAD      ACCESS:     182110  HIT:     166130  MISS:      15980  HIT %:    91.2251  MISS %:    8.77492   MPKI: 0.3196
LLC RFO       ACCESS:      29251  HIT:          1  MISS:      29250  HIT %: 0.00341869  MISS %:    99.9966   MPKI: 0.585
LLC PREFETCH  ACCESS:     467652  HIT:     382800  MISS:      84852  HIT %:    81.8557  MISS %:    18.1443   MPKI: 1.69704
AGUS PREFETCH L1 MISS: 0
LLC WRITEBACK ACCESS:      29262  HIT:      29248  MISS:         14  HIT %:    99.9522  MISS %:  0.0478436   MPKI: 0.00028
LLC LOAD TRANSLATION ACCESS:       2974  HIT:       2722  MISS:        252  HIT %:    91.5266  MISS %:    8.47344   MPKI: 0.00504
LLC PREFETCH  REQUESTED:          0  ISSUED:          0  USEFUL:      71987  USELESS:      16194
LLC USEFUL LOAD PREFETCHES:      71987 PREFETCH ISSUED TO LOWER LEVEL:      85100  ACCURACY: 84.5911
LLC TIMELY PREFETCHES:      71987 LATE PREFETCHES: 248 DROPPED PREFETCHES: 0
LLC PREFETCHES SAME FILL-ORIGIN LEVEL: 62365 DIFFERENT FILL-ORIGIN LEVEL: 0
LLC AVERAGE MISS LATENCY: 303.002 cycles
LLC RQ	ACCESS:     214335	FORWARD:          0	MERGED:          0	TO_CACHE:     214335
LLC WQ	ACCESS:      29262	FORWARD:          0	MERGED:          0	TO_CACHE:      29262
LLC PQ	ACCESS:     472407	FORWARD:          0	MERGED:       4228	TO_CACHE:     468179

LLC Dense regions hint to LLC: 0

RAW hits: 109679
Loads Generated: 19459731
Loads sent to L1D: 19350052
Stores Generated: 4004021
Stores sent to L1D: 4004023
Major fault: 0 Minor fault: 4562
Allocated PAGES: 4562
CPU 0 L1D berti prefetcher final stats
3-> Hits: 7288, Late: 10786, Early: 0, Misses: 0
6-> Hits: 1315, Late: 16759, Early: 0, Misses: 0
7-> Hits: 822, Late: 0, Early: 0, Misses: 0
8-> Hits: 27480, Late: 2419, Early: 0, Misses: 0
e-> Hits: 16743, Late: 0, Early: 0, Misses: 0
12-> Hits: 5452, Late: 0, Early: 0, Misses: 0
17-> Hits: 8387, Late: 0, Early: 0, Misses: 0
18-> Hits: 22229, Late: 0, Early: 0, Misses: 0
19-> Hits: 18074, Late: 0, Early: 0, Misses: 0
1a-> Hits: 4947, Late: 13127, Early: 0, Misses: 0
1d-> Hits: 10, Late: 0, Early: 0, Misses: 0
1e-> Hits: 7721, Late: 3494, Early: 0, Misses: 0
20-> Hits: 22519, Late: 0, Early: 0, Misses: 0
21-> Hits: 26854, Late: 0, Early: 0, Misses: 0
22-> Hits: 18074, Late: 0, Early: 0, Misses: 0
25-> Hits: 6370, Late: 2347, Early: 0, Misses: 0
26-> Hits: 2281, Late: 2125, Early: 0, Misses: 3094
28-> Hits: 18074, Late: 0, Early: 0, Misses: 0
2a-> Hits: 15025, Late: 0, Early: 0, Misses: 0
2b-> Hits: 11357, Late: 0, Early: 0, Misses: 0
30-> Hits: 1466, Late: 0, Early: 0, Misses: 0
31-> Hits: 514, Late: 0, Early: 0, Misses: 0
33-> Hits: 12416, Late: 0, Early: 0, Misses: 0
34-> Hits: 17766, Late: 0, Early: 0, Misses: 0
37-> Hits: 13172, Late: 2791, Early: 0, Misses: 0
38-> Hits: 1396, Late: 0, Early: 0, Misses: 0
3a-> Hits: 12501, Late: 1, Early: 0, Misses: 5572
3c-> Hits: 12781, Late: 2251, Early: 0, Misses: 0
3e-> Hits: 5260, Late: 0, Early: 0, Misses: 0
40-> Hits: 30971, Late: 0, Early: 0, Misses: 0
42-> Hits: 11395, Late: 2109, Early: 0, Misses: 0
43-> Hits: 1, Late: 1, Early: 0, Misses: 0
46-> Hits: 9706, Late: 1157, Early: 0, Misses: 0
47-> Hits: 17161, Late: 0, Early: 0, Misses: 0
48-> Hits: 5715, Late: 0, Early: 0, Misses: 0
49-> Hits: 18074, Late: 0, Early: 0, Misses: 0
4b-> Hits: 1475, Late: 0, Early: 0, Misses: 0
4c-> Hits: 471, Late: 17604, Early: 0, Misses: 0
4d-> Hits: 18074, Late: 0, Early: 0, Misses: 0
50-> Hits: 15964, Late: 0, Early: 0, Misses: 0
51-> Hits: 32181, Late: 0, Early: 0, Misses: 315
53-> Hits: 3149, Late: 14925, Early: 0, Misses: 0
58-> Hits: 36054, Late: 0, Early: 0, Misses: 0
59-> Hits: 8308, Late: 27841, Early: 0, Misses: 0
5a-> Hits: 18074, Late: 0, Early: 0, Misses: 0
5c-> Hits: 17975, Late: 0, Early: 0, Misses: 0
5d-> Hits: 5237, Late: 12837, Early: 0, Misses: 0
60-> Hits: 4404, Late: 1377, Early: 0, Misses: 0
62-> Hits: 34159, Late: 0, Early: 0, Misses: 0
66-> Hits: 1371, Late: 0, Early: 0, Misses: 2
67-> Hits: 25880, Late: 2171, Early: 0, Misses: 0
68-> Hits: 17145, Late: 0, Early: 0, Misses: 0
69-> Hits: 18074, Late: 0, Early: 0, Misses: 0
6b-> Hits: 7213, Late: 10861, Early: 0, Misses: 0
6c-> Hits: 13041, Late: 761, Early: 0, Misses: 0
6e-> Hits: 0, Late: 18071, Early: 0, Misses: 0
6f-> Hits: 18074, Late: 0, Early: 0, Misses: 0
70-> Hits: 11183, Late: 0, Early: 0, Misses: 0
72-> Hits: 36149, Late: 0, Early: 0, Misses: 0
73-> Hits: 18074, Late: 0, Early: 0, Misses: 0
75-> Hits: 9379, Late: 4126, Early: 0, Misses: 0
77-> Hits: 1193, Late: 16882, Early: 0, Misses: 0
78-> Hits: 36148, Late: 0, Early: 0, Misses: 0
7b-> Hits: 10837, Late: 0, Early: 0, Misses: 13
7c-> Hits: 1816, Late: 0, Early: 0, Misses: 0
7e-> Hits: 5504, Late: 0, Early: 0, Misses: 0
81-> Hits: 6724, Late: 11351, Early: 0, Misses: 0
82-> Hits: 33529, Late: 0, Early: 0, Misses: 0
83-> Hits: 21885, Late: 12986, Early: 0, Misses: 0
84-> Hits: 18074, Late: 0, Early: 0, Misses: 0
86-> Hits: 592, Late: 17482, Early: 0, Misses: 0
87-> Hits: 10010, Late: 0, Early: 0, Misses: 0
8a-> Hits: 19835, Late: 2283, Early: 0, Misses: 0
8b-> Hits: 12002, Late: 2806, Early: 0, Misses: 0
8c-> Hits: 27, Late: 0, Early: 0, Misses: 0
90-> Hits: 18074, Late: 0, Early: 0, Misses: 0
91-> Hits: 13638, Late: 0, Early: 0, Misses: 88
94-> Hits: 17871, Late: 0, Early: 0, Misses: 0
96-> Hits: 29907, Late: 1947, Early: 0, Misses: 0
9b-> Hits: 35827, Late: 0, Early: 0, Misses: 321
9e-> Hits: 6018, Late: 0, Early: 0, Misses: 0
a0-> Hits: 18074, Late: 0, Early: 0, Misses: 0
a1-> Hits: 22293, Late: 0, Early: 0, Misses: 0
a5-> Hits: 18074, Late: 0, Early: 0, Misses: 0
a6-> Hits: 6183, Late: 29966, Early: 0, Misses: 0
a9-> Hits: 30575, Late: 0, Early: 0, Misses: 122
aa-> Hits: 14828, Late: 0, Early: 0, Misses: 0
ab-> Hits: 15944, Late: 4907, Early: 0, Misses: 0
ac-> Hits: 17323, Late: 0, Early: 0, Misses: 0
b1-> Hits: 9222, Late: 20805, Early: 0, Misses: 0
b2-> Hits: 18074, Late: 0, Early: 0, Misses: 0
b5-> Hits: 14553, Late: 0, Early: 0, Misses: 0
b6-> Hits: 19206, Late: 0, Early: 0, Misses: 0
b7-> Hits: 10262, Late: 4534, Early: 0, Misses: 0
b9-> Hits: 14868, Late: 1292, Early: 0, Misses: 0
bb-> Hits: 6310, Late: 11764, Early: 0, Misses: 0
bc-> Hits: 5064, Late: 0, Early: 0, Misses: 0
bf-> Hits: 12504, Late: 5570, Early: 0, Misses: 0
c0-> Hits: 11760, Late: 2884, Early: 0, Misses: 0
c1-> Hits: 9344, Late: 0, Early: 0, Misses: 0
c6-> Hits: 18074, Late: 0, Early: 0, Misses: 0
c9-> Hits: 22320, Late: 13820, Early: 0, Misses: 9
ca-> Hits: 3173, Late: 0, Early: 0, Misses: 0
cb-> Hits: 17221, Late: 0, Early: 0, Misses: 0
ce-> Hits: 13594, Late: 891, Early: 0, Misses: 0
cf-> Hits: 15322, Late: 13451, Early: 0, Misses: 0
d1-> Hits: 18074, Late: 0, Early: 0, Misses: 0
d3-> Hits: 11777, Late: 2183, Early: 0, Misses: 0
d4-> Hits: 25096, Late: 3047, Early: 0, Misses: 0
d5-> Hits: 10271, Late: 0, Early: 0, Misses: 0
d9-> Hits: 17752, Late: 0, Early: 0, Misses: 0
da-> Hits: 25428, Late: 0, Early: 0, Misses: 25
df-> Hits: 13274, Late: 0, Early: 0, Misses: 0
e1-> Hits: 22512, Late: 13637, Early: 0, Misses: 0
e2-> Hits: 29905, Late: 2290, Early: 0, Misses: 0
e6-> Hits: 18074, Late: 0, Early: 0, Misses: 0
e7-> Hits: 31462, Late: 12536, Early: 0, Misses: 0
ec-> Hits: 34136, Late: 5936, Early: 0, Misses: 0
f0-> Hits: 1242, Late: 5, Early: 0, Misses: 0
f4-> Hits: 31187, Late: 4961, Early: 0, Misses: 0
f5-> Hits: 11347, Late: 706, Early: 0, Misses: 0
f7-> Hits: 18074, Late: 0, Early: 0, Misses: 0
f8-> Hits: 12272, Late: 0, Early: 0, Misses: 0
fa-> Hits: 17789, Late: 263, Early: 0, Misses: 22
fc-> Hits: 10986, Late: 0, Early: 0, Misses: 0
fd-> Hits: 29, Late: 0, Early: 0, Misses: 0
fe-> Hits: 21509, Late: 2546, Early: 0, Misses: 0
ff-> Hits: 16955, Late: 0, Early: 0, Misses: 1119
102-> Hits: 12921, Late: 1505, Early: 0, Misses: 0
105-> Hits: 26296, Late: 0, Early: 0, Misses: 0
107-> Hits: 19067, Late: 1698, Early: 0, Misses: 0
109-> Hits: 18074, Late: 0, Early: 0, Misses: 0
10a-> Hits: 17953, Late: 121, Early: 0, Misses: 0
10c-> Hits: 26, Late: 17850, Early: 0, Misses: 0
10d-> Hits: 9260, Late: 955, Early: 0, Misses: 0
10e-> Hits: 24898, Late: 0, Early: 0, Misses: 0
112-> Hits: 19226, Late: 0, Early: 0, Misses: 0
114-> Hits: 18074, Late: 0, Early: 0, Misses: 0
117-> Hits: 17041, Late: 992, Early: 0, Misses: 0
11a-> Hits: 3687, Late: 32462, Early: 0, Misses: 0
11b-> Hits: 18074, Late: 0, Early: 0, Misses: 0
11e-> Hits: 16340, Late: 1734, Early: 0, Misses: 0
11f-> Hits: 15867, Late: 0, Early: 0, Misses: 0
120-> Hits: 312, Late: 0, Early: 0, Misses: 0
124-> Hits: 24639, Late: 11510, Early: 0, Misses: 0
128-> Hits: 36148, Late: 0, Early: 0, Misses: 0
129-> Hits: 17280, Late: 0, Early: 0, Misses: 0
12b-> Hits: 17946, Late: 0, Early: 0, Misses: 0
12d-> Hits: 1228, Late: 0, Early: 0, Misses: 0
12f-> Hits: 17, Late: 18057, Early: 0, Misses: 0
132-> Hits: 7005, Late: 11070, Early: 0, Misses: 0
134-> Hits: 6470, Late: 2889, Early: 0, Misses: 0
136-> Hits: 19788, Late: 0, Early: 0, Misses: 0
137-> Hits: 7503, Late: 0, Early: 0, Misses: 0
13a-> Hits: 27840, Late: 0, Early: 0, Misses: 12
13c-> Hits: 7196, Late: 2104, Early: 0, Misses: 0
13d-> Hits: 356, Late: 17718, Early: 0, Misses: 0
13e-> Hits: 7119, Late: 0, Early: 0, Misses: 0
141-> Hits: 18074, Late: 0, Early: 0, Misses: 0
142-> Hits: 61, Late: 17151, Early: 0, Misses: 0
143-> Hits: 36122, Late: 0, Early: 0, Misses: 0
145-> Hits: 4776, Late: 13298, Early: 0, Misses: 0
147-> Hits: 20299, Late: 1799, Early: 0, Misses: 0
14a-> Hits: 9826, Late: 3754, Early: 0, Misses: 0
14c-> Hits: 13446, Late: 4628, Early: 0, Misses: 0
14e-> Hits: 18074, Late: 0, Early: 0, Misses: 0
150-> Hits: 458, Late: 2278, Early: 0, Misses: 0
152-> Hits: 18074, Late: 0, Early: 0, Misses: 0
156-> Hits: 2569, Late: 0, Early: 0, Misses: 0
157-> Hits: 14630, Late: 2201, Early: 0, Misses: 0
15a-> Hits: 18184, Late: 0, Early: 0, Misses: 0
15d-> Hits: 8344, Late: 0, Early: 0, Misses: 0
15f-> Hits: 18074, Late: 0, Early: 0, Misses: 0
160-> Hits: 18074, Late: 0, Early: 0, Misses: 0
163-> Hits: 18074, Late: 0, Early: 0, Misses: 0
165-> Hits: 5084, Late: 12990, Early: 0, Misses: 0
167-> Hits: 18074, Late: 0, Early: 0, Misses: 0
168-> Hits: 406, Late: 0, Early: 0, Misses: 0
169-> Hits: 10520, Late: 0, Early: 0, Misses: 6
16a-> Hits: 11035, Late: 2363, Early: 0, Misses: 0
16b-> Hits: 18074, Late: 0, Early: 0, Misses: 0
170-> Hits: 18074, Late: 0, Early: 0, Misses: 0
172-> Hits: 17286, Late: 0, Early: 0, Misses: 788
173-> Hits: 7182, Late: 2346, Early: 0, Misses: 0
175-> Hits: 24069, Late: 0, Early: 0, Misses: 0
178-> Hits: 42230, Late: 1355, Early: 0, Misses: 0
17a-> Hits: 5232, Late: 12842, Early: 0, Misses: 0
17b-> Hits: 18074, Late: 0, Early: 0, Misses: 0
17d-> Hits: 18074, Late: 0, Early: 0, Misses: 0
17e-> Hits: 384, Late: 0, Early: 0, Misses: 0
17f-> Hits: 24905, Late: 2990, Early: 0, Misses: 0
180-> Hits: 17413, Late: 0, Early: 0, Misses: 0
183-> Hits: 17662, Late: 0, Early: 0, Misses: 0
185-> Hits: 17484, Late: 0, Early: 0, Misses: 590
186-> Hits: 35875, Late: 0, Early: 0, Misses: 0
187-> Hits: 74, Late: 18000, Early: 0, Misses: 0
189-> Hits: 3241, Late: 0, Early: 0, Misses: 0
18d-> Hits: 36148, Late: 0, Early: 0, Misses: 0
18e-> Hits: 18772, Late: 13052, Early: 0, Misses: 0
18f-> Hits: 18074, Late: 0, Early: 0, Misses: 0
193-> Hits: 8926, Late: 2581, Early: 0, Misses: 0
194-> Hits: 12980, Late: 2227, Early: 0, Misses: 0
196-> Hits: 18212, Late: 0, Early: 0, Misses: 0
198-> Hits: 10431, Late: 0, Early: 0, Misses: 0
199-> Hits: 31641, Late: 4507, Early: 0, Misses: 0
19b-> Hits: 13255, Late: 2174, Early: 0, Misses: 0
19e-> Hits: 4841, Late: 13233, Early: 0, Misses: 0
19f-> Hits: 16733, Late: 0, Early: 0, Misses: 0
1a1-> Hits: 29165, Late: 0, Early: 0, Misses: 0
1a3-> Hits: 6884, Late: 3735, Early: 0, Misses: 0
1a5-> Hits: 17233, Late: 0, Early: 0, Misses: 0
1a7-> Hits: 548, Late: 0, Early: 0, Misses: 0
1a8-> Hits: 12588, Late: 5486, Early: 0, Misses: 0
1ab-> Hits: 178, Late: 0, Early: 0, Misses: 0
1b1-> Hits: 644, Late: 17412, Early: 0, Misses: 0
1b6-> Hits: 46798, Late: 79, Early: 0, Misses: 13
1b7-> Hits: 18074, Late: 0, Early: 0, Misses: 0
1b8-> Hits: 12886, Late: 255, Early: 0, Misses: 0
1b9-> Hits: 15797, Late: 0, Early: 0, Misses: 0
1bd-> Hits: 98, Late: 0, Early: 0, Misses: 0
1be-> Hits: 33019, Late: 0, Early: 0, Misses: 0
1c3-> Hits: 1, Late: 18023, Early: 0, Misses: 0
1c4-> Hits: 18074, Late: 0, Early: 0, Misses: 0
1c6-> Hits: 13708, Late: 1996, Early: 0, Misses: 0
1c8-> Hits: 11033, Late: 2252, Early: 0, Misses: 0
1ca-> Hits: 27116, Late: 100, Early: 0, Misses: 0
1cb-> Hits: 14231, Late: 2079, Early: 0, Misses: 0
1cc-> Hits: 17707, Late: 0, Early: 0, Misses: 0
1ce-> Hits: 18074, Late: 0, Early: 0, Misses: 0
1d0-> Hits: 115, Late: 17856, Early: 0, Misses: 0
1d3-> Hits: 15368, Late: 0, Early: 0, Misses: 0
1d7-> Hits: 303, Late: 0, Early: 0, Misses: 0
1da-> Hits: 16321, Late: 1655, Early: 0, Misses: 0
1db-> Hits: 18074, Late: 0, Early: 0, Misses: 0
1de-> Hits: 15937, Late: 0, Early: 0, Misses: 0
1e0-> Hits: 607, Late: 17467, Early: 0, Misses: 0
1e1-> Hits: 15843, Late: 2231, Early: 0, Misses: 0
1e4-> Hits: 14067, Late: 2281, Early: 0, Misses: 0
1e5-> Hits: 18074, Late: 0, Early: 0, Misses: 0
1e7-> Hits: 12918, Late: 0, Early: 0, Misses: 0
1e8-> Hits: 0, Late: 18074, Early: 0, Misses: 0
1ea-> Hits: 11490, Late: 0, Early: 0, Misses: 1
1ee-> Hits: 14, Late: 18060, Early: 0, Misses: 0
1f0-> Hits: 12611, Late: 5463, Early: 0, Misses: 0
1f1-> Hits: 18549, Late: 4854, Early: 0, Misses: 0
1f2-> Hits: 7096, Late: 3974, Early: 0, Misses: 0
1f6-> Hits: 15301, Late: 0, Early: 0, Misses: 0
1f7-> Hits: 13802, Late: 17723, Early: 0, Misses: 3
1fc-> Hits: 12010, Late: 2202, Early: 0, Misses: 0
1fe-> Hits: 13376, Late: 0, Early: 0, Misses: 0
1ff-> Hits: 134, Late: 0, Early: 0, Misses: 0
201-> Hits: 34631, Late: 5690, Early: 0, Misses: 0
203-> Hits: 18074, Late: 0, Early: 0, Misses: 0
204-> Hits: 47, Late: 18027, Early: 0, Misses: 0
205-> Hits: 18074, Late: 0, Early: 0, Misses: 0
207-> Hits: 25186, Late: 13, Early: 0, Misses: 2
209-> Hits: 4869, Late: 5582, Early: 0, Misses: 0
20a-> Hits: 18074, Late: 0, Early: 0, Misses: 0
20b-> Hits: 18074, Late: 0, Early: 0, Misses: 0
20f-> Hits: 9188, Late: 2422, Early: 0, Misses: 0
213-> Hits: 18082, Late: 0, Early: 0, Misses: 0
214-> Hits: 1685, Late: 349, Early: 0, Misses: 0
215-> Hits: 23635, Late: 2108, Early: 0, Misses: 0
21a-> Hits: 759, Late: 17315, Early: 0, Misses: 0
21c-> Hits: 14320, Late: 0, Early: 0, Misses: 0
21d-> Hits: 20265, Late: 2405, Early: 0, Misses: 1
21f-> Hits: 19109, Late: 2, Early: 0, Misses: 0
221-> Hits: 18074, Late: 0, Early: 0, Misses: 0
224-> Hits: 11625, Late: 0, Early: 0, Misses: 0
227-> Hits: 3404, Late: 14670, Early: 0, Misses: 0
229-> Hits: 9772, Late: 2061, Early: 0, Misses: 0
22a-> Hits: 7411, Late: 0, Early: 0, Misses: 0
22b-> Hits: 2162, Late: 17208, Early: 0, Misses: 0
22e-> Hits: 18704, Late: 0, Early: 0, Misses: 0
22f-> Hits: 10896, Late: 0, Early: 0, Misses: 0
230-> Hits: 17399, Late: 0, Early: 0, Misses: 727
234-> Hits: 18074, Late: 0, Early: 0, Misses: 0
235-> Hits: 239, Late: 4375, Early: 0, Misses: 0
239-> Hits: 904, Late: 0, Early: 0, Misses: 0
23a-> Hits: 18074, Late: 0, Early: 0, Misses: 0
23e-> Hits: 18061, Late: 60, Early: 0, Misses: 0
240-> Hits: 6036, Late: 0, Early: 0, Misses: 0
241-> Hits: 12931, Late: 0, Early: 0, Misses: 1
242-> Hits: 6904, Late: 2288, Early: 0, Misses: 0
243-> Hits: 1166, Late: 16956, Early: 0, Misses: 0
245-> Hits: 18074, Late: 0, Early: 0, Misses: 0
247-> Hits: 30509, Late: 963, Early: 0, Misses: 0
248-> Hits: 26052, Late: 4, Early: 0, Misses: 0
24a-> Hits: 13992, Late: 0, Early: 0, Misses: 0
24d-> Hits: 4981, Late: 13093, Early: 0, Misses: 0
24f-> Hits: 27673, Late: 53, Early: 0, Misses: 2
251-> Hits: 18074, Late: 0, Early: 0, Misses: 0
253-> Hits: 16029, Late: 0, Early: 0, Misses: 0
254-> Hits: 18074, Late: 0, Early: 0, Misses: 0
256-> Hits: 1638, Late: 16436, Early: 0, Misses: 0
257-> Hits: 18062, Late: 0, Early: 0, Misses: 12
258-> Hits: 2992, Late: 0, Early: 0, Misses: 0
25d-> Hits: 33900, Late: 0, Early: 0, Misses: 0
25f-> Hits: 13181, Late: 2572, Early: 0, Misses: 2
260-> Hits: 13837, Late: 0, Early: 0, Misses: 0
262-> Hits: 12050, Late: 1625, Early: 0, Misses: 0
264-> Hits: 699, Late: 17375, Early: 0, Misses: 0
265-> Hits: 1531, Late: 0, Early: 0, Misses: 0
266-> Hits: 18073, Late: 0, Early: 0, Misses: 0
267-> Hits: 11865, Late: 2200, Early: 0, Misses: 0
269-> Hits: 14963, Late: 2274, Early: 0, Misses: 0
26d-> Hits: 18056, Late: 0, Early: 0, Misses: 18
26e-> Hits: 16504, Late: 4485, Early: 0, Misses: 0
26f-> Hits: 13947, Late: 0, Early: 0, Misses: 5
270-> Hits: 17873, Late: 0, Early: 0, Misses: 0
273-> Hits: 18074, Late: 0, Early: 0, Misses: 0
274-> Hits: 18074, Late: 0, Early: 0, Misses: 0
277-> Hits: 29420, Late: 17042, Early: 0, Misses: 0
27b-> Hits: 18057, Late: 0, Early: 0, Misses: 17
27d-> Hits: 11285, Late: 1, Early: 0, Misses: 0
282-> Hits: 18074, Late: 0, Early: 0, Misses: 0
283-> Hits: 36116, Late: 0, Early: 0, Misses: 32
284-> Hits: 2466, Late: 15608, Early: 0, Misses: 0
285-> Hits: 10708, Late: 1430, Early: 0, Misses: 0
289-> Hits: 18074, Late: 0, Early: 0, Misses: 0
28b-> Hits: 2018, Late: 0, Early: 0, Misses: 0
28f-> Hits: 17184, Late: 0, Early: 0, Misses: 0
290-> Hits: 30203, Late: 3807, Early: 0, Misses: 0
291-> Hits: 18003, Late: 27, Early: 0, Misses: 15
292-> Hits: 14834, Late: 0, Early: 0, Misses: 0
296-> Hits: 14435, Late: 1550, Early: 0, Misses: 0
298-> Hits: 6059, Late: 12015, Early: 0, Misses: 0
29a-> Hits: 13901, Late: 0, Early: 0, Misses: 0
29c-> Hits: 13925, Late: 2276, Early: 0, Misses: 0
29e-> Hits: 5778, Late: 2401, Early: 0, Misses: 0
29f-> Hits: 17692, Late: 0, Early: 0, Misses: 17
2a4-> Hits: 23, Late: 0, Early: 0, Misses: 0
2a5-> Hits: 26896, Late: 0, Early: 0, Misses: 0
2ab-> Hits: 16489, Late: 1388, Early: 0, Misses: 0
2ac-> Hits: 26699, Late: 2308, Early: 0, Misses: 0
2ad-> Hits: 5044, Late: 13166, Early: 0, Misses: 2
2b2-> Hits: 49150, Late: 2059, Early: 0, Misses: 0
2b3-> Hits: 28432, Late: 1, Early: 0, Misses: 0
2b8-> Hits: 9870, Late: 2296, Early: 0, Misses: 0
2b9-> Hits: 0, Late: 18074, Early: 0, Misses: 0
2ba-> Hits: 8544, Late: 1960, Early: 0, Misses: 0
2bd-> Hits: 3959, Late: 7, Early: 0, Misses: 0
2be-> Hits: 17984, Late: 0, Early: 0, Misses: 18
2bf-> Hits: 17529, Late: 0, Early: 0, Misses: 0
2c4-> Hits: 4196, Late: 19130, Early: 0, Misses: 0
2c5-> Hits: 38229, Late: 15876, Early: 0, Misses: 117
2c8-> Hits: 52, Late: 0, Early: 0, Misses: 0
2c9-> Hits: 3769, Late: 14305, Early: 0, Misses: 0
2ca-> Hits: 16340, Late: 0, Early: 0, Misses: 0
2cb-> Hits: 13724, Late: 0, Early: 0, Misses: 0
2cd-> Hits: 18005, Late: 0, Early: 0, Misses: 124
2cf-> Hits: 9892, Late: 2414, Early: 0, Misses: 0
2d0-> Hits: 5372, Late: 12702, Early: 0, Misses: 0
2d2-> Hits: 14062, Late: 2488, Early: 0, Misses: 0
2d6-> Hits: 418, Late: 0, Early: 0, Misses: 0
2d7-> Hits: 29672, Late: 1733, Early: 0, Misses: 0
2da-> Hits: 16936, Late: 0, Early: 0, Misses: 0
2db-> Hits: 7185, Late: 11048, Early: 0, Misses: 2
2dd-> Hits: 18074, Late: 0, Early: 0, Misses: 0
2e0-> Hits: 2367, Late: 2, Early: 0, Misses: 0
2e2-> Hits: 1175, Late: 16899, Early: 0, Misses: 0
2e3-> Hits: 18074, Late: 0, Early: 0, Misses: 0
2e5-> Hits: 4972, Late: 2164, Early: 0, Misses: 0
2e6-> Hits: 8229, Late: 18041, Early: 0, Misses: 0
2e7-> Hits: 17968, Late: 0, Early: 0, Misses: 0
2ea-> Hits: 9782, Late: 1, Early: 0, Misses: 0
2eb-> Hits: 4897, Late: 5644, Early: 0, Misses: 0
2ec-> Hits: 4485, Late: 13589, Early: 0, Misses: 0
2ee-> Hits: 16152, Late: 0, Early: 0, Misses: 0
2ef-> Hits: 18074, Late: 0, Early: 0, Misses: 0
2f0-> Hits: 36, Late: 0, Early: 0, Misses: 0
2f2-> Hits: 5353, Late: 12721, Early: 0, Misses: 0
2f3-> Hits: 17782, Late: 0, Early: 0, Misses: 0
2f5-> Hits: 18042, Late: 0, Early: 0, Misses: 0
2f6-> Hits: 1848, Late: 359, Early: 0, Misses: 0
2f7-> Hits: 10072, Late: 3000, Early: 0, Misses: 0
2fd-> Hits: 1598, Late: 0, Early: 0, Misses: 0
2fe-> Hits: 9855, Late: 0, Early: 0, Misses: 0
301-> Hits: 24091, Late: 2594, Early: 0, Misses: 0
303-> Hits: 6399, Late: 0, Early: 0, Misses: 0
305-> Hits: 5854, Late: 12220, Early: 0, Misses: 0
308-> Hits: 516, Late: 17558, Early: 0, Misses: 0
30a-> Hits: 31346, Late: 2119, Early: 0, Misses: 0
30d-> Hits: 11907, Late: 2374, Early: 0, Misses: 0
311-> Hits: 8353, Late: 0, Early: 0, Misses: 0
313-> Hits: 9748, Late: 0, Early: 0, Misses: 0
316-> Hits: 5041, Late: 13034, Early: 0, Misses: 0
317-> Hits: 31993, Late: 0, Early: 0, Misses: 0
318-> Hits: 18074, Late: 0, Early: 0, Misses: 0
31b-> Hits: 9765, Late: 19446, Early: 0, Misses: 0
320-> Hits: 17254, Late: 0, Early: 0, Misses: 0
321-> Hits: 1539, Late: 0, Early: 0, Misses: 0
324-> Hits: 17226, Late: 0, Early: 0, Misses: 0
325-> Hits: 18074, Late: 0, Early: 0, Misses: 0
326-> Hits: 6212, Late: 11862, Early: 0, Misses: 0
328-> Hits: 7188, Late: 1819, Early: 0, Misses: 0
32b-> Hits: 5455, Late: 3245, Early: 0, Misses: 0
331-> Hits: 720, Late: 0, Early: 0, Misses: 0
332-> Hits: 12262, Late: 1, Early: 0, Misses: 0
337-> Hits: 232, Late: 0, Early: 0, Misses: 0
339-> Hits: 4309, Late: 13765, Early: 0, Misses: 0
33a-> Hits: 21136, Late: 13708, Early: 0, Misses: 0
33d-> Hits: 17774, Late: 0, Early: 0, Misses: 0
33e-> Hits: 8282, Late: 2353, Early: 0, Misses: 0
33f-> Hits: 3610, Late: 2755, Early: 0, Misses: 0
343-> Hits: 12480, Late: 1, Early: 0, Misses: 5593
344-> Hits: 13676, Late: 1, Early: 0, Misses: 0
345-> Hits: 172, Late: 0, Early: 0, Misses: 0
348-> Hits: 3631, Late: 14443, Early: 0, Misses: 0
34c-> Hits: 14247, Late: 3827, Early: 0, Misses: 0
34d-> Hits: 15383, Late: 0, Early: 0, Misses: 0
34f-> Hits: 17980, Late: 0, Early: 0, Misses: 0
350-> Hits: 10, Late: 0, Early: 0, Misses: 0
351-> Hits: 9192, Late: 0, Early: 0, Misses: 0
355-> Hits: 18073, Late: 0, Early: 0, Misses: 1
356-> Hits: 39270, Late: 2617, Early: 0, Misses: 0
358-> Hits: 18074, Late: 0, Early: 0, Misses: 0
35d-> Hits: 18074, Late: 0, Early: 0, Misses: 0
35f-> Hits: 18074, Late: 0, Early: 0, Misses: 0
367-> Hits: 18074, Late: 0, Early: 0, Misses: 0
368-> Hits: 18006, Late: 0, Early: 0, Misses: 0
369-> Hits: 13730, Late: 2796, Early: 0, Misses: 0
36c-> Hits: 8, Late: 0, Early: 0, Misses: 0
36f-> Hits: 18074, Late: 0, Early: 0, Misses: 0
370-> Hits: 6317, Late: 0, Early: 0, Misses: 0
371-> Hits: 233, Late: 0, Early: 0, Misses: 0
374-> Hits: 18073, Late: 0, Early: 0, Misses: 0
377-> Hits: 8, Late: 0, Early: 0, Misses: 0
378-> Hits: 10080, Late: 1268, Early: 0, Misses: 0
37a-> Hits: 898, Late: 0, Early: 0, Misses: 0
37b-> Hits: 17801, Late: 0, Early: 0, Misses: 0
37d-> Hits: 1085, Late: 0, Early: 0, Misses: 0
37f-> Hits: 9, Late: 0, Early: 0, Misses: 0
380-> Hits: 18074, Late: 0, Early: 0, Misses: 0
385-> Hits: 17381, Late: 15419, Early: 0, Misses: 0
387-> Hits: 8223, Late: 3570, Early: 0, Misses: 0
388-> Hits: 0, Late: 18074, Early: 0, Misses: 0
389-> Hits: 32984, Late: 0, Early: 0, Misses: 0
38a-> Hits: 14100, Late: 0, Early: 0, Misses: 0
38d-> Hits: 10, Late: 0, Early: 0, Misses: 0
38e-> Hits: 761, Late: 17323, Early: 0, Misses: 0
38f-> Hits: 5135, Late: 12939, Early: 0, Misses: 0
390-> Hits: 10, Late: 0, Early: 0, Misses: 0
391-> Hits: 8174, Late: 0, Early: 0, Misses: 0
392-> Hits: 10, Late: 0, Early: 0, Misses: 0
393-> Hits: 18074, Late: 0, Early: 0, Misses: 0
394-> Hits: 18084, Late: 0, Early: 0, Misses: 0
396-> Hits: 36158, Late: 0, Early: 0, Misses: 0
397-> Hits: 10, Late: 0, Early: 0, Misses: 0
398-> Hits: 994, Late: 0, Early: 0, Misses: 0
39d-> Hits: 7047, Late: 11027, Early: 0, Misses: 0
39f-> Hits: 18074, Late: 0, Early: 0, Misses: 0
3a2-> Hits: 9771, Late: 18053, Early: 0, Misses: 0
3a3-> Hits: 13418, Late: 2368, Early: 0, Misses: 0
3a5-> Hits: 17887, Late: 0, Early: 0, Misses: 0
3a6-> Hits: 1, Late: 0, Early: 0, Misses: 0
3a7-> Hits: 11062, Late: 19192, Early: 0, Misses: 0
3a9-> Hits: 16397, Late: 0, Early: 0, Misses: 0
3b0-> Hits: 1027, Late: 0, Early: 0, Misses: 0
3b1-> Hits: 19063, Late: 1962, Early: 0, Misses: 0
3b6-> Hits: 34012, Late: 0, Early: 0, Misses: 0
3b9-> Hits: 6444, Late: 12726, Early: 0, Misses: 0
3bb-> Hits: 769, Late: 17305, Early: 0, Misses: 0
3be-> Hits: 11114, Late: 2758, Early: 0, Misses: 0
3bf-> Hits: 30453, Late: 0, Early: 0, Misses: 0
3c0-> Hits: 21610, Late: 14375, Early: 0, Misses: 0
3c6-> Hits: 0, Late: 18074, Early: 0, Misses: 0
3c8-> Hits: 4034, Late: 14040, Early: 0, Misses: 0
3cc-> Hits: 5398, Late: 2515, Early: 0, Misses: 0
3d1-> Hits: 22874, Late: 0, Early: 0, Misses: 0
3d2-> Hits: 9592, Late: 0, Early: 0, Misses: 0
3d3-> Hits: 26139, Late: 0, Early: 0, Misses: 0
3d6-> Hits: 4499, Late: 2251, Early: 0, Misses: 0
3d8-> Hits: 15695, Late: 1827, Early: 0, Misses: 0
3d9-> Hits: 12158, Late: 12337, Early: 0, Misses: 0
3da-> Hits: 17955, Late: 0, Early: 0, Misses: 0
3db-> Hits: 30289, Late: 1065, Early: 0, Misses: 0
3dd-> Hits: 18074, Late: 0, Early: 0, Misses: 0
3df-> Hits: 7427, Late: 2407, Early: 0, Misses: 0
3e1-> Hits: 18074, Late: 0, Early: 0, Misses: 0
3e4-> Hits: 18074, Late: 0, Early: 0, Misses: 0
3e6-> Hits: 12728, Late: 16747, Early: 0, Misses: 0
3ea-> Hits: 8375, Late: 0, Early: 0, Misses: 0
3eb-> Hits: 3808, Late: 0, Early: 0, Misses: 0
3ec-> Hits: 20634, Late: 4062, Early: 0, Misses: 0
3ee-> Hits: 35556, Late: 0, Early: 0, Misses: 0
3ef-> Hits: 6048, Late: 12026, Early: 0, Misses: 0
3f0-> Hits: 5440, Late: 12634, Early: 0, Misses: 0
3f1-> Hits: 16729, Late: 1295, Early: 0, Misses: 0
3f4-> Hits: 10987, Late: 2739, Early: 0, Misses: 0
3f9-> Hits: 11223, Late: 0, Early: 0, Misses: 0
3fd-> Hits: 15056, Late: 0, Early: 0, Misses: 0
3fe-> Hits: 19485, Late: 0, Early: 0, Misses: 0
400-> Hits: 4312, Late: 13762, Early: 0, Misses: 0
403-> Hits: 6317, Late: 11757, Early: 0, Misses: 0
404-> Hits: 17393, Late: 0, Early: 0, Misses: 0
407-> Hits: 23682, Late: 0, Early: 0, Misses: 0
408-> Hits: 8655, Late: 3014, Early: 0, Misses: 0
40a-> Hits: 15806, Late: 0, Early: 0, Misses: 0
40c-> Hits: 14657, Late: 18771, Early: 0, Misses: 0
411-> Hits: 44617, Late: 4588, Early: 0, Misses: 0
413-> Hits: 14374, Late: 0, Early: 0, Misses: 0
417-> Hits: 7763, Late: 0, Early: 0, Misses: 0
418-> Hits: 36148, Late: 0, Early: 0, Misses: 0
41b-> Hits: 5274, Late: 12800, Early: 0, Misses: 0
41d-> Hits: 17193, Late: 0, Early: 0, Misses: 0
41f-> Hits: 1060, Late: 17014, Early: 0, Misses: 0
420-> Hits: 19600, Late: 5516, Early: 0, Misses: 0
421-> Hits: 18074, Late: 0, Early: 0, Misses: 0
423-> Hits: 0, Late: 1, Early: 0, Misses: 0
424-> Hits: 7319, Late: 0, Early: 0, Misses: 0
425-> Hits: 8761, Late: 0, Early: 0, Misses: 0
42a-> Hits: 0, Late: 1, Early: 0, Misses: 0
42c-> Hits: 7443, Late: 1880, Early: 0, Misses: 0
42e-> Hits: 26528, Late: 3693, Early: 0, Misses: 0
42f-> Hits: 27523, Late: 0, Early: 0, Misses: 0
432-> Hits: 18074, Late: 0, Early: 0, Misses: 0
433-> Hits: 18074, Late: 0, Early: 0, Misses: 0
435-> Hits: 9584, Late: 13716, Early: 0, Misses: 0
437-> Hits: 18074, Late: 0, Early: 0, Misses: 0
43a-> Hits: 11151, Late: 1397, Early: 0, Misses: 0
43b-> Hits: 11830, Late: 2603, Early: 0, Misses: 0
43c-> Hits: 16477, Late: 0, Early: 0, Misses: 0
43e-> Hits: 15905, Late: 0, Early: 0, Misses: 0
43f-> Hits: 18074, Late: 0, Early: 0, Misses: 0
440-> Hits: 18074, Late: 18047, Early: 0, Misses: 0
445-> Hits: 4016, Late: 14058, Early: 0, Misses: 0
446-> Hits: 18539, Late: 0, Early: 0, Misses: 0
447-> Hits: 14461, Late: 1419, Early: 0, Misses: 0
449-> Hits: 1769, Late: 0, Early: 0, Misses: 0
44b-> Hits: 9115, Late: 0, Early: 0, Misses: 0
44c-> Hits: 13941, Late: 2011, Early: 0, Misses: 0
44e-> Hits: 16, Late: 18048, Early: 0, Misses: 0
450-> Hits: 9560, Late: 2644, Early: 0, Misses: 0
452-> Hits: 18074, Late: 0, Early: 0, Misses: 0
453-> Hits: 16273, Late: 0, Early: 0, Misses: 0
456-> Hits: 8666, Late: 0, Early: 0, Misses: 0
457-> Hits: 10238, Late: 0, Early: 0, Misses: 0
45c-> Hits: 17616, Late: 365, Early: 0, Misses: 0
45e-> Hits: 14, Late: 17476, Early: 0, Misses: 584
460-> Hits: 15328, Late: 0, Early: 0, Misses: 0
462-> Hits: 12096, Late: 2835, Early: 0, Misses: 0
463-> Hits: 34211, Late: 1937, Early: 0, Misses: 0
469-> Hits: 11117, Late: 0, Early: 0, Misses: 0
46c-> Hits: 20, Late: 18054, Early: 0, Misses: 0
46e-> Hits: 18074, Late: 0, Early: 0, Misses: 0
471-> Hits: 8562, Late: 969, Early: 0, Misses: 0
476-> Hits: 1431, Late: 0, Early: 0, Misses: 0
477-> Hits: 15557, Late: 17678, Early: 0, Misses: 0
47a-> Hits: 23897, Late: 1883, Early: 0, Misses: 0
47e-> Hits: 3890, Late: 14184, Early: 0, Misses: 0
480-> Hits: 85, Late: 17989, Early: 0, Misses: 0
482-> Hits: 1288, Late: 4494, Early: 0, Misses: 53
483-> Hits: 31755, Late: 0, Early: 0, Misses: 0
485-> Hits: 3460, Late: 2339, Early: 0, Misses: 0
488-> Hits: 4957, Late: 13117, Early: 0, Misses: 0
48c-> Hits: 11479, Late: 0, Early: 0, Misses: 0
48f-> Hits: 11262, Late: 0, Early: 0, Misses: 0
491-> Hits: 3792, Late: 0, Early: 0, Misses: 0
493-> Hits: 18074, Late: 0, Early: 0, Misses: 0
496-> Hits: 7383, Late: 10691, Early: 0, Misses: 0
49b-> Hits: 9504, Late: 0, Early: 0, Misses: 0
49d-> Hits: 18074, Late: 0, Early: 0, Misses: 0
49e-> Hits: 6254, Late: 2587, Early: 0, Misses: 0
4a0-> Hits: 7793, Late: 1902, Early: 0, Misses: 0
4a5-> Hits: 32082, Late: 2182, Early: 0, Misses: 36
4a9-> Hits: 5641, Late: 0, Early: 0, Misses: 0
4aa-> Hits: 18074, Late: 0, Early: 0, Misses: 0
4ae-> Hits: 18074, Late: 0, Early: 0, Misses: 0
4af-> Hits: 15699, Late: 0, Early: 0, Misses: 0
4b1-> Hits: 23646, Late: 12502, Early: 0, Misses: 0
4b2-> Hits: 8434, Late: 0, Early: 0, Misses: 0
4b6-> Hits: 28943, Late: 6130, Early: 0, Misses: 15272
4b8-> Hits: 18074, Late: 0, Early: 0, Misses: 0
4be-> Hits: 5124, Late: 2663, Early: 0, Misses: 0
4bf-> Hits: 19102, Late: 1887, Early: 0, Misses: 1211
4c3-> Hits: 15385, Late: 1190, Early: 0, Misses: 0
4c5-> Hits: 16178, Late: 0, Early: 0, Misses: 0
4c8-> Hits: 17415, Late: 1, Early: 0, Misses: 0
4c9-> Hits: 5193, Late: 12881, Early: 0, Misses: 0
4cd-> Hits: 18074, Late: 0, Early: 0, Misses: 0
4ce-> Hits: 23821, Late: 2392, Early: 0, Misses: 0
4d0-> Hits: 18074, Late: 0, Early: 0, Misses: 0
4d2-> Hits: 680, Late: 17394, Early: 0, Misses: 0
4d7-> Hits: 18074, Late: 0, Early: 0, Misses: 0
4d9-> Hits: 22113, Late: 0, Early: 0, Misses: 0
4de-> Hits: 16301, Late: 14696, Early: 0, Misses: 0
4df-> Hits: 17756, Late: 0, Early: 0, Misses: 0
4e0-> Hits: 2116, Late: 1786, Early: 0, Misses: 656
4e3-> Hits: 24140, Late: 5167, Early: 0, Misses: 0
4e8-> Hits: 14517, Late: 0, Early: 0, Misses: 0
4ea-> Hits: 9160, Late: 0, Early: 0, Misses: 0
4eb-> Hits: 17876, Late: 0, Early: 0, Misses: 0
4ed-> Hits: 2927, Late: 0, Early: 0, Misses: 0
4ef-> Hits: 2981, Late: 2399, Early: 0, Misses: 1831
4f2-> Hits: 19792, Late: 13994, Early: 0, Misses: 0
4f7-> Hits: 24868, Late: 3018, Early: 0, Misses: 0
4f9-> Hits: 12380, Late: 0, Early: 0, Misses: 0
4fc-> Hits: 29886, Late: 0, Early: 0, Misses: 0
502-> Hits: 27641, Late: 0, Early: 0, Misses: 0
504-> Hits: 17920, Late: 0, Early: 0, Misses: 154
507-> Hits: 1364, Late: 16686, Early: 0, Misses: 0
509-> Hits: 36148, Late: 0, Early: 0, Misses: 0
50a-> Hits: 5235, Late: 12839, Early: 0, Misses: 0
50c-> Hits: 1, Late: 0, Early: 0, Misses: 0
50e-> Hits: 5217, Late: 0, Early: 0, Misses: 0
510-> Hits: 7816, Late: 3754, Early: 0, Misses: 0
511-> Hits: 12742, Late: 2673, Early: 0, Misses: 0
513-> Hits: 12644, Late: 807, Early: 0, Misses: 0
516-> Hits: 18074, Late: 0, Early: 0, Misses: 0
518-> Hits: 17666, Late: 0, Early: 0, Misses: 0
51c-> Hits: 17663, Late: 1, Early: 0, Misses: 410
51e-> Hits: 36148, Late: 0, Early: 0, Misses: 0
520-> Hits: 14163, Late: 1470, Early: 0, Misses: 0
523-> Hits: 17191, Late: 0, Early: 0, Misses: 0
525-> Hits: 14828, Late: 1912, Early: 0, Misses: 0
527-> Hits: 4, Late: 18070, Early: 0, Misses: 0
52c-> Hits: 18211, Late: 17937, Early: 0, Misses: 0
52d-> Hits: 15508, Late: 2254, Early: 0, Misses: 0
530-> Hits: 18004, Late: 0, Early: 0, Misses: 0
533-> Hits: 17241, Late: 0, Early: 0, Misses: 0
534-> Hits: 16336, Late: 1486, Early: 0, Misses: 0
536-> Hits: 67, Late: 18007, Early: 0, Misses: 0
539-> Hits: 18074, Late: 0, Early: 0, Misses: 0
53b-> Hits: 28785, Late: 4320, Early: 0, Misses: 0
53c-> Hits: 339, Late: 4459, Early: 0, Misses: 0
53e-> Hits: 17949, Late: 0, Early: 0, Misses: 125
540-> Hits: 17510, Late: 0, Early: 0, Misses: 0
542-> Hits: 0, Late: 18074, Early: 0, Misses: 0
545-> Hits: 5133, Late: 2236, Early: 0, Misses: 0
546-> Hits: 13847, Late: 0, Early: 0, Misses: 0
547-> Hits: 31155, Late: 4993, Early: 0, Misses: 0
54a-> Hits: 13050, Late: 19316, Early: 0, Misses: 0
54b-> Hits: 12738, Late: 0, Early: 0, Misses: 0
550-> Hits: 16135, Late: 4622, Early: 0, Misses: 0
551-> Hits: 1601, Late: 2341, Early: 0, Misses: 0
553-> Hits: 18074, Late: 0, Early: 0, Misses: 0
557-> Hits: 8083, Late: 1816, Early: 0, Misses: 0
558-> Hits: 35541, Late: 0, Early: 0, Misses: 0
55b-> Hits: 21, Late: 18053, Early: 0, Misses: 0
55c-> Hits: 10128, Late: 2435, Early: 0, Misses: 14
55d-> Hits: 17965, Late: 0, Early: 0, Misses: 0
55e-> Hits: 17817, Late: 257, Early: 0, Misses: 0
561-> Hits: 1342, Late: 2507, Early: 0, Misses: 0
562-> Hits: 459, Late: 17615, Early: 0, Misses: 0
565-> Hits: 13137, Late: 0, Early: 0, Misses: 0
567-> Hits: 18074, Late: 0, Early: 0, Misses: 0
568-> Hits: 34566, Late: 0, Early: 0, Misses: 0
56b-> Hits: 33575, Late: 0, Early: 0, Misses: 7
56e-> Hits: 42, Late: 18032, Early: 0, Misses: 0
570-> Hits: 21362, Late: 13523, Early: 0, Misses: 0
573-> Hits: 10965, Late: 19027, Early: 0, Misses: 0
57a-> Hits: 18074, Late: 0, Early: 0, Misses: 0
57b-> Hits: 0, Late: 18074, Early: 0, Misses: 0
57c-> Hits: 17292, Late: 0, Early: 0, Misses: 0
57e-> Hits: 18074, Late: 0, Early: 0, Misses: 0
581-> Hits: 3, Late: 0, Early: 0, Misses: 0
583-> Hits: 5607, Late: 17569, Early: 0, Misses: 0
585-> Hits: 484, Late: 4131, Early: 0, Misses: 0
588-> Hits: 3078, Late: 0, Early: 0, Misses: 0
58a-> Hits: 18074, Late: 18074, Early: 0, Misses: 0
58d-> Hits: 14074, Late: 14653, Early: 0, Misses: 16
591-> Hits: 18074, Late: 0, Early: 0, Misses: 0
597-> Hits: 17491, Late: 0, Early: 0, Misses: 0
598-> Hits: 427, Late: 2191, Early: 0, Misses: 0
59a-> Hits: 15698, Late: 0, Early: 0, Misses: 0
59e-> Hits: 0, Late: 18074, Early: 0, Misses: 0
59f-> Hits: 24609, Late: 0, Early: 0, Misses: 0
5a0-> Hits: 18074, Late: 0, Early: 0, Misses: 0
5a4-> Hits: 460, Late: 17614, Early: 0, Misses: 0
5a6-> Hits: 1265, Late: 0, Early: 0, Misses: 0
5a9-> Hits: 14411, Late: 4711, Early: 0, Misses: 0
5ac-> Hits: 17764, Late: 0, Early: 0, Misses: 0
5ae-> Hits: 0, Late: 18074, Early: 0, Misses: 0
5af-> Hits: 13503, Late: 0, Early: 0, Misses: 0
5b1-> Hits: 18074, Late: 0, Early: 0, Misses: 0
5b3-> Hits: 7648, Late: 0, Early: 0, Misses: 0
5b7-> Hits: 915, Late: 17159, Early: 0, Misses: 0
5b8-> Hits: 18074, Late: 18074, Early: 0, Misses: 0
5b9-> Hits: 17690, Late: 0, Early: 0, Misses: 0
5bc-> Hits: 8742, Late: 0, Early: 0, Misses: 0
5c0-> Hits: 915, Late: 17159, Early: 0, Misses: 0
5c1-> Hits: 2866, Late: 0, Early: 0, Misses: 0
5c3-> Hits: 18074, Late: 0, Early: 0, Misses: 0
5c4-> Hits: 31553, Late: 1713, Early: 0, Misses: 0
5ca-> Hits: 0, Late: 18074, Early: 0, Misses: 0
5cd-> Hits: 6461, Late: 0, Early: 0, Misses: 0
5cf-> Hits: 1439, Late: 16635, Early: 0, Misses: 0
5d0-> Hits: 35726, Late: 422, Early: 0, Misses: 0
5d1-> Hits: 18074, Late: 0, Early: 0, Misses: 0
5d3-> Hits: 18074, Late: 0, Early: 0, Misses: 0
5d5-> Hits: 15982, Late: 11964, Early: 0, Misses: 0
5d8-> Hits: 14199, Late: 0, Early: 0, Misses: 0
5da-> Hits: 28133, Late: 2354, Early: 0, Misses: 0
5dc-> Hits: 18074, Late: 0, Early: 0, Misses: 0
5de-> Hits: 0, Late: 18074, Early: 0, Misses: 0
5e2-> Hits: 18074, Late: 0, Early: 0, Misses: 0
5e4-> Hits: 4960, Late: 31188, Early: 0, Misses: 0
5e9-> Hits: 15662, Late: 0, Early: 0, Misses: 0
5ea-> Hits: 30237, Late: 0, Early: 0, Misses: 0
5ef-> Hits: 25390, Late: 20356, Early: 0, Misses: 0
5f0-> Hits: 18074, Late: 0, Early: 0, Misses: 0
5f1-> Hits: 17515, Late: 0, Early: 0, Misses: 0
5f4-> Hits: 199, Late: 17875, Early: 0, Misses: 0
5f6-> Hits: 28930, Late: 0, Early: 0, Misses: 0
5fe-> Hits: 18074, Late: 0, Early: 0, Misses: 0
5ff-> Hits: 35961, Late: 22, Early: 0, Misses: 165
601-> Hits: 10036, Late: 0, Early: 0, Misses: 0
602-> Hits: 16650, Late: 0, Early: 0, Misses: 0
607-> Hits: 0, Late: 18074, Early: 0, Misses: 0
609-> Hits: 3216, Late: 14858, Early: 0, Misses: 0
60b-> Hits: 17600, Late: 0, Early: 0, Misses: 0
60e-> Hits: 16821, Late: 0, Early: 0, Misses: 0
60f-> Hits: 97, Late: 17977, Early: 0, Misses: 0
611-> Hits: 17176, Late: 0, Early: 0, Misses: 0
613-> Hits: 5766, Late: 12308, Early: 0, Misses: 0
618-> Hits: 18074, Late: 0, Early: 0, Misses: 0
619-> Hits: 0, Late: 18074, Early: 0, Misses: 0
61c-> Hits: 18730, Late: 0, Early: 0, Misses: 0
61f-> Hits: 160, Late: 4452, Early: 0, Misses: 0
621-> Hits: 41852, Late: 10527, Early: 0, Misses: 0
623-> Hits: 10204, Late: 3366, Early: 0, Misses: 0
626-> Hits: 3852, Late: 0, Early: 0, Misses: 0
62a-> Hits: 18074, Late: 0, Early: 0, Misses: 0
62b-> Hits: 7002, Late: 1928, Early: 0, Misses: 0
62d-> Hits: 33160, Late: 18074, Early: 0, Misses: 0
630-> Hits: 8015, Late: 0, Early: 0, Misses: 0
631-> Hits: 1, Late: 0, Early: 0, Misses: 0
632-> Hits: 1, Late: 0, Early: 0, Misses: 0
633-> Hits: 353, Late: 2292, Early: 0, Misses: 0
634-> Hits: 4708, Late: 0, Early: 0, Misses: 0
635-> Hits: 1, Late: 0, Early: 0, Misses: 0
637-> Hits: 1, Late: 0, Early: 0, Misses: 0
639-> Hits: 1, Late: 0, Early: 0, Misses: 0
63a-> Hits: 18074, Late: 0, Early: 0, Misses: 0
63b-> Hits: 1, Late: 0, Early: 0, Misses: 0
63c-> Hits: 5366, Late: 12708, Early: 0, Misses: 0
63d-> Hits: 15167, Late: 0, Early: 0, Misses: 0
63e-> Hits: 0, Late: 18074, Early: 0, Misses: 0
640-> Hits: 30709, Late: 5439, Early: 0, Misses: 0
641-> Hits: 24864, Late: 5222, Early: 0, Misses: 0
642-> Hits: 1, Late: 0, Early: 0, Misses: 0
643-> Hits: 1, Late: 0, Early: 0, Misses: 0
644-> Hits: 494, Late: 2375, Early: 0, Misses: 0
645-> Hits: 1, Late: 0, Early: 0, Misses: 0
647-> Hits: 17518, Late: 0, Early: 0, Misses: 0
649-> Hits: 1, Late: 0, Early: 0, Misses: 0
64b-> Hits: 17773, Late: 0, Early: 0, Misses: 0
64d-> Hits: 18074, Late: 0, Early: 0, Misses: 0
64e-> Hits: 3691, Late: 0, Early: 0, Misses: 2
64f-> Hits: 47346, Late: 1433, Early: 0, Misses: 0
654-> Hits: 25267, Late: 0, Early: 0, Misses: 0
656-> Hits: 56, Late: 18018, Early: 0, Misses: 0
659-> Hits: 641, Late: 17433, Early: 0, Misses: 0
65b-> Hits: 0, Late: 18074, Early: 0, Misses: 0
65c-> Hits: 6398, Late: 11676, Early: 0, Misses: 0
65e-> Hits: 17205, Late: 0, Early: 0, Misses: 0
660-> Hits: 18074, Late: 0, Early: 0, Misses: 0
661-> Hits: 30203, Late: 2265, Early: 0, Misses: 0
665-> Hits: 106, Late: 4464, Early: 0, Misses: 0
666-> Hits: 4851, Late: 13223, Early: 0, Misses: 0
668-> Hits: 18074, Late: 0, Early: 0, Misses: 0
66a-> Hits: 0, Late: 18074, Early: 0, Misses: 0
66c-> Hits: 8069, Late: 0, Early: 0, Misses: 0
66f-> Hits: 17631, Late: 0, Early: 0, Misses: 0
671-> Hits: 25238, Late: 10910, Early: 0, Misses: 0
674-> Hits: 17094, Late: 1497, Early: 0, Misses: 0
676-> Hits: 13845, Late: 2586, Early: 0, Misses: 0
677-> Hits: 1183, Late: 0, Early: 0, Misses: 0
678-> Hits: 891, Late: 2582, Early: 0, Misses: 0
679-> Hits: 12598, Late: 1028, Early: 0, Misses: 0
67c-> Hits: 1959, Late: 0, Early: 0, Misses: 0
67e-> Hits: 17707, Late: 18074, Early: 0, Misses: 0
67f-> Hits: 18074, Late: 0, Early: 0, Misses: 0
681-> Hits: 25303, Late: 10845, Early: 0, Misses: 0
682-> Hits: 16529, Late: 0, Early: 0, Misses: 0
684-> Hits: 1118, Late: 16956, Early: 0, Misses: 0
685-> Hits: 1, Late: 0, Early: 0, Misses: 0
686-> Hits: 5581, Late: 2942, Early: 0, Misses: 0
689-> Hits: 1847, Late: 2677, Early: 0, Misses: 0
68b-> Hits: 14420, Late: 0, Early: 0, Misses: 0
68d-> Hits: 31883, Late: 0, Early: 0, Misses: 0
68e-> Hits: 5387, Late: 30761, Early: 0, Misses: 0
695-> Hits: 5389, Late: 12685, Early: 0, Misses: 0
696-> Hits: 12118, Late: 0, Early: 0, Misses: 0
697-> Hits: 15709, Late: 0, Early: 0, Misses: 2365
698-> Hits: 0, Late: 18074, Early: 0, Misses: 0
69a-> Hits: 6253, Late: 2664, Early: 0, Misses: 0
69c-> Hits: 18074, Late: 0, Early: 0, Misses: 0
69d-> Hits: 3, Late: 18071, Early: 0, Misses: 0
6a5-> Hits: 18074, Late: 0, Early: 0, Misses: 0
6a7-> Hits: 0, Late: 18074, Early: 0, Misses: 0
6a8-> Hits: 17388, Late: 0, Early: 0, Misses: 0
6aa-> Hits: 17655, Late: 0, Early: 0, Misses: 0
6ac-> Hits: 2, Late: 18072, Early: 0, Misses: 0
6b3-> Hits: 125, Late: 17949, Early: 0, Misses: 0
6b5-> Hits: 0, Late: 18074, Early: 0, Misses: 0
6b7-> Hits: 69665, Late: 235, Early: 0, Misses: 1582
6b8-> Hits: 13077, Late: 2663, Early: 0, Misses: 0
6ba-> Hits: 1, Late: 0, Early: 0, Misses: 0
6bb-> Hits: 721, Late: 17353, Early: 0, Misses: 0
6be-> Hits: 9011, Late: 0, Early: 0, Misses: 0
6c0-> Hits: 12471, Late: 5603, Early: 0, Misses: 0
6c3-> Hits: 17907, Late: 0, Early: 0, Misses: 0
6c4-> Hits: 1024, Late: 0, Early: 0, Misses: 0
6c5-> Hits: 0, Late: 18074, Early: 0, Misses: 0
6c6-> Hits: 1315, Late: 16759, Early: 0, Misses: 0
6ca-> Hits: 17171, Late: 0, Early: 0, Misses: 0
6cb-> Hits: 8552, Late: 20303, Early: 0, Misses: 15836
6cc-> Hits: 13454, Late: 0, Early: 0, Misses: 1
6cd-> Hits: 17707, Late: 0, Early: 0, Misses: 0
6d0-> Hits: 17674, Late: 0, Early: 0, Misses: 0
6d3-> Hits: 8139, Late: 1669, Early: 0, Misses: 0
6d5-> Hits: 17919, Late: 18074, Early: 0, Misses: 0
6d9-> Hits: 36, Late: 18038, Early: 0, Misses: 0
6da-> Hits: 18094, Late: 18054, Early: 0, Misses: 0
6dc-> Hits: 4373, Late: 13701, Early: 0, Misses: 0
6de-> Hits: 50663, Late: 0, Early: 0, Misses: 0
6df-> Hits: 18074, Late: 0, Early: 0, Misses: 0
6e1-> Hits: 11134, Late: 2360, Early: 0, Misses: 0
6e3-> Hits: 16084, Late: 0, Early: 0, Misses: 0
6e4-> Hits: 19285, Late: 16863, Early: 0, Misses: 0
6e8-> Hits: 18074, Late: 0, Early: 0, Misses: 0
6eb-> Hits: 4813, Late: 13261, Early: 0, Misses: 0
6ed-> Hits: 12936, Late: 263, Early: 0, Misses: 0
6ef-> Hits: 18679, Late: 2369, Early: 0, Misses: 2080
6f0-> Hits: 17932, Late: 0, Early: 0, Misses: 0
6f1-> Hits: 8986, Late: 3192, Early: 0, Misses: 0
6f5-> Hits: 33771, Late: 0, Early: 0, Misses: 0
6f8-> Hits: 18004, Late: 0, Early: 0, Misses: 0
6ff-> Hits: 16726, Late: 1079, Early: 0, Misses: 0
701-> Hits: 16007, Late: 0, Early: 0, Misses: 0
702-> Hits: 3081, Late: 0, Early: 0, Misses: 0
703-> Hits: 18074, Late: 0, Early: 0, Misses: 0
704-> Hits: 13036, Late: 2291, Early: 0, Misses: 0
708-> Hits: 36148, Late: 0, Early: 0, Misses: 0
70a-> Hits: 1386, Late: 2354, Early: 0, Misses: 0
70b-> Hits: 8352, Late: 0, Early: 0, Misses: 0
70d-> Hits: 17233, Late: 0, Early: 0, Misses: 0
711-> Hits: 13888, Late: 0, Early: 0, Misses: 0
713-> Hits: 9897, Late: 1062, Early: 0, Misses: 0
716-> Hits: 14637, Late: 1931, Early: 0, Misses: 0
718-> Hits: 1295, Late: 0, Early: 0, Misses: 0
71a-> Hits: 18074, Late: 0, Early: 0, Misses: 0
71b-> Hits: 18074, Late: 0, Early: 0, Misses: 0
71e-> Hits: 17388, Late: 686, Early: 0, Misses: 0
720-> Hits: 3745, Late: 14329, Early: 0, Misses: 0
725-> Hits: 32507, Late: 0, Early: 0, Misses: 0
727-> Hits: 21780, Late: 7437, Early: 0, Misses: 0
72a-> Hits: 6161, Late: 11913, Early: 0, Misses: 0
72c-> Hits: 15778, Late: 1218, Early: 0, Misses: 0
731-> Hits: 18062, Late: 0, Early: 0, Misses: 0
734-> Hits: 793, Late: 0, Early: 0, Misses: 0
736-> Hits: 18074, Late: 0, Early: 0, Misses: 0
738-> Hits: 17084, Late: 0, Early: 0, Misses: 0
739-> Hits: 7117, Late: 10957, Early: 0, Misses: 0
73b-> Hits: 4161, Late: 13913, Early: 0, Misses: 0
73c-> Hits: 6, Late: 0, Early: 0, Misses: 0
73d-> Hits: 16223, Late: 1851, Early: 0, Misses: 0
73e-> Hits: 8027, Late: 2877, Early: 0, Misses: 0
740-> Hits: 6, Late: 0, Early: 0, Misses: 0
742-> Hits: 22373, Late: 0, Early: 0, Misses: 0
743-> Hits: 3, Late: 0, Early: 0, Misses: 0
746-> Hits: 1140, Late: 25, Early: 0, Misses: 0
747-> Hits: 9658, Late: 1820, Early: 0, Misses: 0
748-> Hits: 6825, Late: 0, Early: 0, Misses: 0
74c-> Hits: 14499, Late: 2138, Early: 0, Misses: 0
74d-> Hits: 17449, Late: 0, Early: 0, Misses: 0
74f-> Hits: 15781, Late: 0, Early: 0, Misses: 0
750-> Hits: 5508, Late: 12566, Early: 0, Misses: 0
751-> Hits: 18074, Late: 0, Early: 0, Misses: 0
753-> Hits: 18074, Late: 0, Early: 0, Misses: 0
754-> Hits: 18074, Late: 0, Early: 0, Misses: 0
756-> Hits: 9041, Late: 3174, Early: 0, Misses: 0
75b-> Hits: 11988, Late: 2291, Early: 0, Misses: 0
75c-> Hits: 5325, Late: 27, Early: 0, Misses: 0
75e-> Hits: 7, Late: 0, Early: 0, Misses: 0
760-> Hits: 18071, Late: 0, Early: 0, Misses: 3
762-> Hits: 17551, Late: 0, Early: 0, Misses: 0
764-> Hits: 18074, Late: 0, Early: 0, Misses: 0
765-> Hits: 2989, Late: 110, Early: 0, Misses: 0
769-> Hits: 5138, Late: 12936, Early: 0, Misses: 0
76f-> Hits: 6025, Late: 2290, Early: 0, Misses: 0
770-> Hits: 5984, Late: 11987, Early: 0, Misses: 0
772-> Hits: 31203, Late: 0, Early: 0, Misses: 0
773-> Hits: 18074, Late: 0, Early: 0, Misses: 0
777-> Hits: 2250, Late: 0, Early: 0, Misses: 0
77a-> Hits: 8679, Late: 0, Early: 0, Misses: 0
77b-> Hits: 18074, Late: 0, Early: 0, Misses: 0
77c-> Hits: 30283, Late: 613, Early: 0, Misses: 0
77d-> Hits: 0, Late: 1, Early: 0, Misses: 0
77f-> Hits: 7787, Late: 10287, Early: 0, Misses: 0
781-> Hits: 18074, Late: 0, Early: 0, Misses: 0
783-> Hits: 4692, Late: 0, Early: 0, Misses: 0
785-> Hits: 11138, Late: 2941, Early: 0, Misses: 0
787-> Hits: 11156, Late: 0, Early: 0, Misses: 0
789-> Hits: 14500, Late: 1581, Early: 0, Misses: 0
78f-> Hits: 35532, Late: 2064, Early: 0, Misses: 0
790-> Hits: 17779, Late: 0, Early: 0, Misses: 295
791-> Hits: 15508, Late: 2566, Early: 0, Misses: 0
794-> Hits: 6523, Late: 11551, Early: 0, Misses: 0
798-> Hits: 18074, Late: 0, Early: 0, Misses: 0
799-> Hits: 6053, Late: 3480, Early: 0, Misses: 0
79c-> Hits: 14614, Late: 0, Early: 0, Misses: 0
79d-> Hits: 6621, Late: 0, Early: 0, Misses: 0
79e-> Hits: 16543, Late: 869, Early: 0, Misses: 0
7a3-> Hits: 30, Late: 1, Early: 0, Misses: 0
7a4-> Hits: 18074, Late: 0, Early: 0, Misses: 0
7a5-> Hits: 34265, Late: 1883, Early: 0, Misses: 0
7a6-> Hits: 17727, Late: 0, Early: 0, Misses: 0
7a7-> Hits: 1422, Late: 62, Early: 0, Misses: 0
7a8-> Hits: 33, Late: 0, Early: 0, Misses: 0
7a9-> Hits: 8507, Late: 0, Early: 0, Misses: 0
7ac-> Hits: 5520, Late: 30628, Early: 0, Misses: 0
7b2-> Hits: 6618, Late: 3405, Early: 0, Misses: 0
7b7-> Hits: 9990, Late: 49, Early: 0, Misses: 0
7ba-> Hits: 36262, Late: 1265, Early: 0, Misses: 0
7bd-> Hits: 23068, Late: 332, Early: 0, Misses: 0
7bf-> Hits: 18074, Late: 0, Early: 0, Misses: 0
7c4-> Hits: 14399, Late: 2034, Early: 0, Misses: 497
7c5-> Hits: 17945, Late: 0, Early: 0, Misses: 129
7cc-> Hits: 18074, Late: 0, Early: 0, Misses: 0
7cd-> Hits: 4485, Late: 0, Early: 0, Misses: 0
7d2-> Hits: 0, Late: 17889, Early: 0, Misses: 0
7d3-> Hits: 13333, Late: 4741, Early: 0, Misses: 0
7d5-> Hits: 17781, Late: 0, Early: 0, Misses: 0
7d8-> Hits: 0, Late: 18074, Early: 0, Misses: 0
7da-> Hits: 34375, Late: 0, Early: 0, Misses: 0
7db-> Hits: 51, Late: 18023, Early: 0, Misses: 0
7dc-> Hits: 18066, Late: 0, Early: 0, Misses: 8
7dd-> Hits: 17999, Late: 0, Early: 0, Misses: 0
7e0-> Hits: 8817, Late: 3282, Early: 0, Misses: 0
7e3-> Hits: 9, Late: 0, Early: 0, Misses: 0
7e7-> Hits: 18074, Late: 0, Early: 0, Misses: 0
7e8-> Hits: 18074, Late: 0, Early: 0, Misses: 0
7eb-> Hits: 3669, Late: 18317, Early: 0, Misses: 0
7ec-> Hits: 13338, Late: 0, Early: 0, Misses: 0
7f0-> Hits: 1, Late: 0, Early: 0, Misses: 0
7f1-> Hits: 18074, Late: 0, Early: 0, Misses: 0
7f2-> Hits: 18074, Late: 0, Early: 0, Misses: 0
7f4-> Hits: 18074, Late: 0, Early: 0, Misses: 0
7f5-> Hits: 6895, Late: 2280, Early: 0, Misses: 352
7f7-> Hits: 11366, Late: 0, Early: 0, Misses: 0
7f9-> Hits: 225, Late: 17849, Early: 0, Misses: 0
7fd-> Hits: 18074, Late: 0, Early: 0, Misses: 0
804-> Hits: 18074, Late: 0, Early: 0, Misses: 0
807-> Hits: 4560, Late: 0, Early: 0, Misses: 0
808-> Hits: 15141, Late: 2933, Early: 0, Misses: 0
80c-> Hits: 2790, Late: 3929, Early: 0, Misses: 0
80d-> Hits: 18074, Late: 0, Early: 0, Misses: 0
810-> Hits: 15230, Late: 0, Early: 0, Misses: 0
813-> Hits: 11166, Late: 0, Early: 0, Misses: 0
818-> Hits: 12090, Late: 1689, Early: 0, Misses: 0
81a-> Hits: 18074, Late: 0, Early: 0, Misses: 0
81c-> Hits: 17973, Late: 0, Early: 0, Misses: 0
81d-> Hits: 18074, Late: 0, Early: 0, Misses: 0
81e-> Hits: 13406, Late: 4, Early: 0, Misses: 0
822-> Hits: 17997, Late: 0, Early: 0, Misses: 0
829-> Hits: 23549, Late: 0, Early: 0, Misses: 0
82c-> Hits: 10129, Late: 0, Early: 0, Misses: 0
82f-> Hits: 18074, Late: 0, Early: 0, Misses: 0
831-> Hits: 6506, Late: 3024, Early: 0, Misses: 0
834-> Hits: 1596, Late: 37, Early: 0, Misses: 0
835-> Hits: 18074, Late: 0, Early: 0, Misses: 0
836-> Hits: 15137, Late: 1178, Early: 0, Misses: 0
838-> Hits: 36148, Late: 0, Early: 0, Misses: 0
839-> Hits: 18074, Late: 0, Early: 0, Misses: 0
841-> Hits: 20131, Late: 0, Early: 0, Misses: 0
84a-> Hits: 25129, Late: 17880, Early: 0, Misses: 0
84f-> Hits: 18074, Late: 0, Early: 0, Misses: 0
851-> Hits: 15216, Late: 1, Early: 0, Misses: 0
854-> Hits: 36, Late: 0, Early: 0, Misses: 0
856-> Hits: 11142, Late: 1915, Early: 0, Misses: 0
857-> Hits: 18074, Late: 0, Early: 0, Misses: 0
85b-> Hits: 13137, Late: 2154, Early: 0, Misses: 0
85f-> Hits: 16529, Late: 0, Early: 0, Misses: 0
860-> Hits: 15251, Late: 2823, Early: 0, Misses: 0
862-> Hits: 2382, Late: 1, Early: 0, Misses: 0
864-> Hits: 8944, Late: 0, Early: 0, Misses: 0
865-> Hits: 8951, Late: 0, Early: 0, Misses: 0
866-> Hits: 9039, Late: 0, Early: 0, Misses: 0
869-> Hits: 18074, Late: 0, Early: 0, Misses: 0
86a-> Hits: 13706, Late: 2298, Early: 0, Misses: 0
86c-> Hits: 16441, Late: 0, Early: 0, Misses: 0
86f-> Hits: 18074, Late: 1, Early: 0, Misses: 0
873-> Hits: 18074, Late: 0, Early: 0, Misses: 0
876-> Hits: 31743, Late: 3244, Early: 0, Misses: 0
877-> Hits: 18074, Late: 0, Early: 0, Misses: 0
87e-> Hits: 17161, Late: 0, Early: 0, Misses: 0
87f-> Hits: 19054, Late: 17089, Early: 0, Misses: 0
886-> Hits: 4820, Late: 0, Early: 0, Misses: 0
889-> Hits: 11810, Late: 2533, Early: 0, Misses: 0
88a-> Hits: 18074, Late: 0, Early: 0, Misses: 0
88b-> Hits: 11388, Late: 297, Early: 0, Misses: 0
88c-> Hits: 35888, Late: 0, Early: 0, Misses: 0
88d-> Hits: 17091, Late: 0, Early: 0, Misses: 0
88f-> Hits: 7, Late: 0, Early: 0, Misses: 0
890-> Hits: 17797, Late: 1, Early: 0, Misses: 0
891-> Hits: 26372, Late: 330, Early: 0, Misses: 0
898-> Hits: 31667, Late: 1363, Early: 0, Misses: 0
89c-> Hits: 18074, Late: 0, Early: 0, Misses: 0
89d-> Hits: 13962, Late: 1792, Early: 0, Misses: 0
89e-> Hits: 18074, Late: 0, Early: 0, Misses: 0
8a2-> Hits: 6804, Late: 115, Early: 0, Misses: 0
8a5-> Hits: 15429, Late: 2302, Early: 0, Misses: 0
8ab-> Hits: 14615, Late: 2174, Early: 0, Misses: 0
8ac-> Hits: 16299, Late: 1692, Early: 0, Misses: 0
8b0-> Hits: 18205, Late: 0, Early: 0, Misses: 0
8b1-> Hits: 12352, Late: 0, Early: 0, Misses: 0
8b3-> Hits: 15882, Late: 2193, Early: 0, Misses: 0
8b5-> Hits: 3396, Late: 2159, Early: 0, Misses: 0
8b8-> Hits: 8160, Late: 0, Early: 0, Misses: 0
8ba-> Hits: 13874, Late: 15965, Early: 0, Misses: 0
8c0-> Hits: 213, Late: 17861, Early: 0, Misses: 0
8c2-> Hits: 36148, Late: 0, Early: 0, Misses: 0
8c3-> Hits: 18074, Late: 0, Early: 0, Misses: 0
8c4-> Hits: 2289, Late: 1940, Early: 0, Misses: 0
8c5-> Hits: 18074, Late: 0, Early: 0, Misses: 0
8c9-> Hits: 16581, Late: 0, Early: 0, Misses: 0
8ca-> Hits: 18074, Late: 0, Early: 0, Misses: 0
8cd-> Hits: 5, Late: 1, Early: 0, Misses: 0
8ce-> Hits: 7364, Late: 136, Early: 0, Misses: 0
8d1-> Hits: 1111, Late: 16963, Early: 0, Misses: 0
8d5-> Hits: 17606, Late: 0, Early: 0, Misses: 0
8d6-> Hits: 18403, Late: 17746, Early: 0, Misses: 0
8d7-> Hits: 17876, Late: 0, Early: 0, Misses: 0
8da-> Hits: 18074, Late: 0, Early: 0, Misses: 0
8db-> Hits: 21565, Late: 5325, Early: 0, Misses: 0
8df-> Hits: 18074, Late: 0, Early: 0, Misses: 0
8e3-> Hits: 30660, Late: 5488, Early: 0, Misses: 0
8e4-> Hits: 36529, Late: 15994, Early: 0, Misses: 0
8e6-> Hits: 2630, Late: 327, Early: 0, Misses: 0
8e9-> Hits: 7871, Late: 0, Early: 0, Misses: 0
8eb-> Hits: 30709, Late: 5439, Early: 0, Misses: 0
8ed-> Hits: 18074, Late: 0, Early: 0, Misses: 0
8ee-> Hits: 6505, Late: 11569, Early: 0, Misses: 0
8f1-> Hits: 17314, Late: 0, Early: 0, Misses: 0
8f5-> Hits: 17175, Late: 0, Early: 0, Misses: 0
8f7-> Hits: 31404, Late: 4744, Early: 0, Misses: 0
8fa-> Hits: 20755, Late: 79, Early: 0, Misses: 0
8fd-> Hits: 2656, Late: 15419, Early: 0, Misses: 0
900-> Hits: 18074, Late: 0, Early: 0, Misses: 0
902-> Hits: 18074, Late: 0, Early: 0, Misses: 0
905-> Hits: 494, Late: 17580, Early: 0, Misses: 0
906-> Hits: 1461, Late: 3950, Early: 0, Misses: 0
90a-> Hits: 13929, Late: 2336, Early: 0, Misses: 0
90b-> Hits: 7762, Late: 0, Early: 0, Misses: 0
90d-> Hits: 3976, Late: 0, Early: 0, Misses: 0
90f-> Hits: 18074, Late: 0, Early: 0, Misses: 0
910-> Hits: 54222, Late: 0, Early: 0, Misses: 0
911-> Hits: 6, Late: 0, Early: 0, Misses: 0
912-> Hits: 11130, Late: 0, Early: 0, Misses: 0
915-> Hits: 16340, Late: 1, Early: 0, Misses: 0
918-> Hits: 18262, Late: 17886, Early: 0, Misses: 0
919-> Hits: 18074, Late: 0, Early: 0, Misses: 0
91a-> Hits: 17433, Late: 0, Early: 0, Misses: 0
91c-> Hits: 32789, Late: 0, Early: 0, Misses: 0
91e-> Hits: 9409, Late: 0, Early: 0, Misses: 0
923-> Hits: 17710, Late: 0, Early: 0, Misses: 0
926-> Hits: 26019, Late: 4021, Early: 0, Misses: 0
927-> Hits: 18074, Late: 0, Early: 0, Misses: 0
929-> Hits: 30170, Late: 0, Early: 0, Misses: 0
930-> Hits: 35502, Late: 2848, Early: 0, Misses: 0
936-> Hits: 18074, Late: 0, Early: 0, Misses: 0
938-> Hits: 8020, Late: 10054, Early: 0, Misses: 0
939-> Hits: 18074, Late: 0, Early: 0, Misses: 0
93a-> Hits: 52426, Late: 0, Early: 0, Misses: 0
93c-> Hits: 17350, Late: 311, Early: 0, Misses: 0
93d-> Hits: 10766, Late: 2430, Early: 0, Misses: 0
93e-> Hits: 12142, Late: 0, Early: 0, Misses: 0
93f-> Hits: 21266, Late: 2350, Early: 0, Misses: 0
946-> Hits: 18074, Late: 0, Early: 0, Misses: 0
947-> Hits: 5926, Late: 0, Early: 0, Misses: 0
94b-> Hits: 2, Late: 0, Early: 0, Misses: 0
94e-> Hits: 11519, Late: 0, Early: 0, Misses: 0
94f-> Hits: 23689, Late: 12459, Early: 0, Misses: 0
952-> Hits: 5781, Late: 126, Early: 0, Misses: 0
954-> Hits: 7795, Late: 0, Early: 0, Misses: 0
956-> Hits: 16523, Late: 0, Early: 0, Misses: 0
957-> Hits: 17971, Late: 1, Early: 0, Misses: 0
959-> Hits: 10536, Late: 2292, Early: 0, Misses: 0
95c-> Hits: 1, Late: 0, Early: 0, Misses: 0
961-> Hits: 1, Late: 0, Early: 0, Misses: 0
962-> Hits: 29304, Late: 2247, Early: 0, Misses: 0
965-> Hits: 27283, Late: 3091, Early: 0, Misses: 0
966-> Hits: 11137, Late: 0, Early: 0, Misses: 0
967-> Hits: 14751, Late: 0, Early: 0, Misses: 0
968-> Hits: 17483, Late: 0, Early: 0, Misses: 0
969-> Hits: 8765, Late: 0, Early: 0, Misses: 0
96a-> Hits: 18074, Late: 0, Early: 0, Misses: 0
96e-> Hits: 11334, Late: 0, Early: 0, Misses: 0
970-> Hits: 16969, Late: 0, Early: 0, Misses: 0
971-> Hits: 11423, Late: 1270, Early: 0, Misses: 0
97c-> Hits: 18074, Late: 0, Early: 0, Misses: 0
97e-> Hits: 18070, Late: 0, Early: 0, Misses: 0
97f-> Hits: 1195, Late: 0, Early: 0, Misses: 0
981-> Hits: 13976, Late: 2297, Early: 0, Misses: 0
985-> Hits: 18074, Late: 0, Early: 0, Misses: 0
987-> Hits: 18807, Late: 15903, Early: 0, Misses: 0
98c-> Hits: 15597, Late: 0, Early: 0, Misses: 0
98f-> Hits: 30303, Late: 2016, Early: 0, Misses: 0
991-> Hits: 5584, Late: 12490, Early: 0, Misses: 0
992-> Hits: 14216, Late: 3115, Early: 0, Misses: 0
993-> Hits: 26282, Late: 0, Early: 0, Misses: 0
994-> Hits: 23180, Late: 68, Early: 0, Misses: 0
999-> Hits: 398, Late: 17677, Early: 0, Misses: 0
99a-> Hits: 700, Late: 0, Early: 0, Misses: 0
99b-> Hits: 18074, Late: 0, Early: 0, Misses: 0
99c-> Hits: 35769, Late: 0, Early: 0, Misses: 0
99e-> Hits: 15848, Late: 0, Early: 0, Misses: 0
99f-> Hits: 7895, Late: 10179, Early: 0, Misses: 0
9a4-> Hits: 34587, Late: 13531, Early: 0, Misses: 0
9a5-> Hits: 34389, Late: 0, Early: 0, Misses: 0
9a6-> Hits: 7683, Late: 14127, Early: 0, Misses: 0
9a9-> Hits: 11682, Late: 2036, Early: 0, Misses: 0
9aa-> Hits: 1735, Late: 15, Early: 0, Misses: 0
9af-> Hits: 34975, Late: 0, Early: 0, Misses: 0
9b1-> Hits: 18074, Late: 1, Early: 0, Misses: 0
9b2-> Hits: 10514, Late: 0, Early: 0, Misses: 0
9b4-> Hits: 5153, Late: 2378, Early: 0, Misses: 0
9b5-> Hits: 4230, Late: 2018, Early: 0, Misses: 0
9b9-> Hits: 11159, Late: 1187, Early: 0, Misses: 0
9ba-> Hits: 20258, Late: 12602, Early: 0, Misses: 0
9bc-> Hits: 18074, Late: 0, Early: 0, Misses: 0
9be-> Hits: 12593, Late: 5481, Early: 0, Misses: 0
9bf-> Hits: 29974, Late: 2935, Early: 0, Misses: 0
9c0-> Hits: 17686, Late: 388, Early: 0, Misses: 0
9c2-> Hits: 36148, Late: 0, Early: 0, Misses: 0
9c4-> Hits: 1232, Late: 16843, Early: 0, Misses: 0
9c8-> Hits: 17794, Late: 0, Early: 0, Misses: 0
9c9-> Hits: 4728, Late: 0, Early: 0, Misses: 0
9ca-> Hits: 24518, Late: 0, Early: 0, Misses: 0
9ce-> Hits: 44526, Late: 22563, Early: 0, Misses: 0
9d2-> Hits: 7875, Late: 0, Early: 0, Misses: 0
9d5-> Hits: 17259, Late: 0, Early: 0, Misses: 0
9d6-> Hits: 17792, Late: 282, Early: 0, Misses: 0
9da-> Hits: 2100, Late: 15974, Early: 0, Misses: 0
9df-> Hits: 27968, Late: 2196, Early: 0, Misses: 0
9e2-> Hits: 17180, Late: 0, Early: 0, Misses: 0
9e5-> Hits: 6845, Late: 0, Early: 0, Misses: 0
9ea-> Hits: 9670, Late: 17254, Early: 0, Misses: 0
9eb-> Hits: 34876, Late: 0, Early: 0, Misses: 0
9ec-> Hits: 17516, Late: 0, Early: 0, Misses: 0
9ef-> Hits: 19768, Late: 13358, Early: 0, Misses: 0
9f0-> Hits: 18074, Late: 0, Early: 0, Misses: 0
9f1-> Hits: 4, Late: 1, Early: 0, Misses: 0
9f4-> Hits: 13803, Late: 2575, Early: 0, Misses: 0
9f5-> Hits: 13566, Late: 46, Early: 0, Misses: 0
9fa-> Hits: 16745, Late: 0, Early: 0, Misses: 0
9fb-> Hits: 18006, Late: 0, Early: 0, Misses: 0
9fd-> Hits: 1345, Late: 16734, Early: 0, Misses: 0
9fe-> Hits: 2082, Late: 0, Early: 0, Misses: 0
a01-> Hits: 8843, Late: 0, Early: 0, Misses: 0
a02-> Hits: 9029, Late: 0, Early: 0, Misses: 0
a03-> Hits: 5407, Late: 12667, Early: 0, Misses: 0
a05-> Hits: 14638, Late: 0, Early: 0, Misses: 0
a08-> Hits: 25310, Late: 2663, Early: 0, Misses: 0
a0a-> Hits: 8231, Late: 1694, Early: 0, Misses: 0
a0b-> Hits: 5543, Late: 33, Early: 0, Misses: 0
a0f-> Hits: 12985, Late: 0, Early: 0, Misses: 0
a12-> Hits: 17288, Late: 0, Early: 0, Misses: 0
a13-> Hits: 1107, Late: 0, Early: 0, Misses: 0
a17-> Hits: 5772, Late: 12302, Early: 0, Misses: 0
a18-> Hits: 18074, Late: 0, Early: 0, Misses: 0
a1a-> Hits: 12527, Late: 0, Early: 0, Misses: 0
a1b-> Hits: 59202, Late: 12616, Early: 0, Misses: 0
a1c-> Hits: 7008, Late: 3106, Early: 0, Misses: 0
a20-> Hits: 9235, Late: 2370, Early: 0, Misses: 0
a21-> Hits: 1955, Late: 3, Early: 0, Misses: 0
a2a-> Hits: 24271, Late: 0, Early: 0, Misses: 0
a2c-> Hits: 16057, Late: 0, Early: 0, Misses: 0
a2d-> Hits: 18074, Late: 0, Early: 0, Misses: 0
a30-> Hits: 3, Late: 0, Early: 0, Misses: 0
a31-> Hits: 3, Late: 0, Early: 0, Misses: 0
a32-> Hits: 4797, Late: 13281, Early: 0, Misses: 0
a33-> Hits: 18068, Late: 0, Early: 0, Misses: 6
a34-> Hits: 3, Late: 0, Early: 0, Misses: 0
a36-> Hits: 3, Late: 0, Early: 0, Misses: 0
a37-> Hits: 57922, Late: 0, Early: 0, Misses: 0
a38-> Hits: 3, Late: 0, Early: 0, Misses: 0
a3b-> Hits: 3631, Late: 0, Early: 0, Misses: 0
a3c-> Hits: 27371, Late: 2532, Early: 0, Misses: 0
a3f-> Hits: 18074, Late: 0, Early: 0, Misses: 0
a40-> Hits: 0, Late: 18048, Early: 0, Misses: 0
a41-> Hits: 18069, Late: 0, Early: 0, Misses: 0
a45-> Hits: 18074, Late: 0, Early: 0, Misses: 0
a46-> Hits: 865, Late: 0, Early: 0, Misses: 0
a48-> Hits: 5592, Late: 0, Early: 0, Misses: 0
a4a-> Hits: 20649, Late: 0, Early: 0, Misses: 0
a4b-> Hits: 24197, Late: 0, Early: 0, Misses: 0
a4c-> Hits: 25342, Late: 0, Early: 0, Misses: 0
a4d-> Hits: 10621, Late: 4, Early: 0, Misses: 0
a4e-> Hits: 26682, Late: 19725, Early: 0, Misses: 0
a52-> Hits: 16843, Late: 0, Early: 0, Misses: 0
a55-> Hits: 25607, Late: 1307, Early: 0, Misses: 0
a5a-> Hits: 1203, Late: 16872, Early: 0, Misses: 0
a5b-> Hits: 18074, Late: 0, Early: 0, Misses: 0
a5e-> Hits: 17380, Late: 0, Early: 0, Misses: 0
a5f-> Hits: 4458, Late: 13617, Early: 0, Misses: 0
a61-> Hits: 48, Late: 18026, Early: 0, Misses: 0
a63-> Hits: 18074, Late: 0, Early: 0, Misses: 0
a65-> Hits: 1, Late: 0, Early: 0, Misses: 0
a68-> Hits: 36143, Late: 0, Early: 0, Misses: 0
a69-> Hits: 14102, Late: 0, Early: 0, Misses: 0
a6e-> Hits: 7240, Late: 10835, Early: 0, Misses: 0
a6f-> Hits: 6566, Late: 11509, Early: 0, Misses: 0
a70-> Hits: 9083, Late: 0, Early: 0, Misses: 0
a73-> Hits: 11619, Late: 0, Early: 0, Misses: 0
a76-> Hits: 15848, Late: 0, Early: 0, Misses: 0
a78-> Hits: 8848, Late: 2041, Early: 0, Misses: 0
a79-> Hits: 1132, Late: 0, Early: 0, Misses: 0
a7a-> Hits: 10896, Late: 0, Early: 0, Misses: 0
a80-> Hits: 1, Late: 0, Early: 0, Misses: 0
a81-> Hits: 5275, Late: 12800, Early: 0, Misses: 0
a82-> Hits: 1155, Late: 1696, Early: 0, Misses: 0
a83-> Hits: 18074, Late: 0, Early: 0, Misses: 0
a87-> Hits: 11304, Late: 3463, Early: 0, Misses: 0
a89-> Hits: 11705, Late: 0, Early: 0, Misses: 0
a8e-> Hits: 38045, Late: 2935, Early: 0, Misses: 0
a8f-> Hits: 6747, Late: 0, Early: 0, Misses: 0
a90-> Hits: 18074, Late: 0, Early: 0, Misses: 0
a93-> Hits: 18074, Late: 0, Early: 0, Misses: 0
a99-> Hits: 9725, Late: 0, Early: 0, Misses: 0
a9a-> Hits: 16811, Late: 0, Early: 0, Misses: 0
a9e-> Hits: 1, Late: 0, Early: 0, Misses: 0
a9f-> Hits: 18074, Late: 0, Early: 0, Misses: 0
aa2-> Hits: 7386, Late: 10689, Early: 0, Misses: 0
aa5-> Hits: 35416, Late: 0, Early: 0, Misses: 0
aa7-> Hits: 10810, Late: 6047, Early: 0, Misses: 0
aa8-> Hits: 18074, Late: 0, Early: 0, Misses: 0
aab-> Hits: 2, Late: 0, Early: 0, Misses: 0
aac-> Hits: 15594, Late: 906, Early: 0, Misses: 0
ab2-> Hits: 9810, Late: 13357, Early: 0, Misses: 0
ab3-> Hits: 2, Late: 0, Early: 0, Misses: 0
ab5-> Hits: 17390, Late: 0, Early: 0, Misses: 0
ab8-> Hits: 13696, Late: 2748, Early: 0, Misses: 0
abb-> Hits: 23839, Late: 9532, Early: 0, Misses: 0
abe-> Hits: 18074, Late: 0, Early: 0, Misses: 0
abf-> Hits: 11698, Late: 0, Early: 0, Misses: 0
ac0-> Hits: 17765, Late: 0, Early: 0, Misses: 0
ac2-> Hits: 26231, Late: 0, Early: 0, Misses: 0
ac7-> Hits: 32271, Late: 14376, Early: 0, Misses: 0
ac8-> Hits: 18074, Late: 0, Early: 0, Misses: 0
acc-> Hits: 17544, Late: 4588, Early: 0, Misses: 0
acd-> Hits: 18074, Late: 0, Early: 0, Misses: 0
ace-> Hits: 9027, Late: 0, Early: 0, Misses: 0
ad3-> Hits: 5152, Late: 0, Early: 0, Misses: 0
ad4-> Hits: 17828, Late: 0, Early: 0, Misses: 0
ad5-> Hits: 18074, Late: 0, Early: 0, Misses: 0
ad6-> Hits: 18074, Late: 0, Early: 0, Misses: 0
ad7-> Hits: 4991, Late: 13085, Early: 0, Misses: 0
adb-> Hits: 12106, Late: 2363, Early: 0, Misses: 0
adc-> Hits: 9784, Late: 0, Early: 0, Misses: 0
add-> Hits: 20858, Late: 3211, Early: 0, Misses: 0
ade-> Hits: 18246, Late: 0, Early: 0, Misses: 0
ae0-> Hits: 18181, Late: 0, Early: 0, Misses: 0
ae5-> Hits: 17569, Late: 0, Early: 0, Misses: 0
ae8-> Hits: 13, Late: 0, Early: 0, Misses: 0
aea-> Hits: 18074, Late: 0, Early: 0, Misses: 0
aeb-> Hits: 13046, Late: 0, Early: 0, Misses: 0
af0-> Hits: 22087, Late: 14055, Early: 0, Misses: 0
af4-> Hits: 32056, Late: 0, Early: 0, Misses: 0
af6-> Hits: 29919, Late: 0, Early: 0, Misses: 0
af7-> Hits: 19064, Late: 0, Early: 0, Misses: 0
af8-> Hits: 14522, Late: 0, Early: 0, Misses: 0
afc-> Hits: 12805, Late: 212, Early: 0, Misses: 0
afd-> Hits: 0, Late: 18072, Early: 0, Misses: 0
aff-> Hits: 17156, Late: 0, Early: 0, Misses: 0
b01-> Hits: 13444, Late: 1581, Early: 0, Misses: 0
b02-> Hits: 1147, Late: 0, Early: 0, Misses: 0
b03-> Hits: 3, Late: 0, Early: 0, Misses: 0
b06-> Hits: 16097, Late: 0, Early: 0, Misses: 0
b07-> Hits: 15938, Late: 874, Early: 0, Misses: 0
b0a-> Hits: 35646, Late: 18047, Early: 0, Misses: 0
b0c-> Hits: 18074, Late: 0, Early: 0, Misses: 0
b0f-> Hits: 107, Late: 0, Early: 0, Misses: 1
b10-> Hits: 16190, Late: 0, Early: 0, Misses: 0
b16-> Hits: 16899, Late: 1141, Early: 0, Misses: 0
b17-> Hits: 17103, Late: 0, Early: 0, Misses: 0
b19-> Hits: 17459, Late: 0, Early: 0, Misses: 0
b1a-> Hits: 11, Late: 18064, Early: 0, Misses: 0
b1d-> Hits: 16606, Late: 1468, Early: 0, Misses: 0
b24-> Hits: 11134, Late: 18074, Early: 0, Misses: 0
b25-> Hits: 13748, Late: 0, Early: 0, Misses: 0
b26-> Hits: 18074, Late: 0, Early: 0, Misses: 0
b28-> Hits: 15, Late: 18060, Early: 0, Misses: 0
b29-> Hits: 15934, Late: 0, Early: 0, Misses: 2140
b2d-> Hits: 15003, Late: 0, Early: 0, Misses: 0
b2e-> Hits: 1436, Late: 1647, Early: 0, Misses: 0
b30-> Hits: 17847, Late: 0, Early: 0, Misses: 119
b31-> Hits: 254, Late: 17821, Early: 0, Misses: 0
b32-> Hits: 18074, Late: 0, Early: 0, Misses: 0
b34-> Hits: 1028, Late: 0, Early: 0, Misses: 0
b35-> Hits: 17197, Late: 0, Early: 0, Misses: 0
b38-> Hits: 17736, Late: 0, Early: 0, Misses: 0
b3b-> Hits: 1770, Late: 4752, Early: 0, Misses: 0
b3f-> Hits: 18074, Late: 0, Early: 0, Misses: 0
b40-> Hits: 51, Late: 18023, Early: 0, Misses: 0
b41-> Hits: 18074, Late: 0, Early: 0, Misses: 0
b44-> Hits: 7955, Late: 1, Early: 0, Misses: 88
b45-> Hits: 26936, Late: 3064, Early: 0, Misses: 0
b4a-> Hits: 2, Late: 0, Early: 0, Misses: 0
b4c-> Hits: 2144, Late: 18074, Early: 0, Misses: 0
b4e-> Hits: 18074, Late: 0, Early: 0, Misses: 0
b52-> Hits: 2, Late: 0, Early: 0, Misses: 0
b53-> Hits: 2, Late: 0, Early: 0, Misses: 0
b54-> Hits: 2, Late: 0, Early: 0, Misses: 0
b55-> Hits: 2911, Late: 103, Early: 0, Misses: 0
b56-> Hits: 2, Late: 0, Early: 0, Misses: 0
b57-> Hits: 1339, Late: 2282, Early: 0, Misses: 0
b58-> Hits: 2, Late: 0, Early: 0, Misses: 0
b5a-> Hits: 2, Late: 0, Early: 0, Misses: 0
b5b-> Hits: 71, Late: 18003, Early: 0, Misses: 0
b5c-> Hits: 16726, Late: 0, Early: 0, Misses: 0
b5e-> Hits: 10903, Late: 0, Early: 0, Misses: 0
b5f-> Hits: 17498, Late: 0, Early: 0, Misses: 0
b63-> Hits: 13629, Late: 1774, Early: 0, Misses: 0
b69-> Hits: 720, Late: 0, Early: 0, Misses: 0
b6a-> Hits: 15460, Late: 3697, Early: 0, Misses: 4
b6b-> Hits: 14026, Late: 0, Early: 0, Misses: 0
b6c-> Hits: 951, Late: 2604, Early: 0, Misses: 14519
b6d-> Hits: 17973, Late: 0, Early: 0, Misses: 0
b72-> Hits: 6845, Late: 18074, Early: 0, Misses: 0
b75-> Hits: 9120, Late: 4356, Early: 0, Misses: 1190
b76-> Hits: 31919, Late: 0, Early: 0, Misses: 0
b7b-> Hits: 16350, Late: 996, Early: 0, Misses: 0
b7f-> Hits: 18074, Late: 0, Early: 0, Misses: 0
b81-> Hits: 14940, Late: 0, Early: 0, Misses: 9
b82-> Hits: 18176, Late: 6, Early: 0, Misses: 122
b85-> Hits: 18074, Late: 0, Early: 0, Misses: 0
b89-> Hits: 0, Late: 18074, Early: 0, Misses: 0
b8a-> Hits: 18074, Late: 0, Early: 0, Misses: 0
b8b-> Hits: 18954, Late: 17195, Early: 0, Misses: 0
b8e-> Hits: 17842, Late: 0, Early: 0, Misses: 0
b92-> Hits: 16032, Late: 0, Early: 0, Misses: 0
b96-> Hits: 16755, Late: 0, Early: 0, Misses: 0
b97-> Hits: 11524, Late: 2001, Early: 0, Misses: 0
b98-> Hits: 17928, Late: 0, Early: 0, Misses: 146
b9c-> Hits: 31034, Late: 2272, Early: 0, Misses: 0
b9d-> Hits: 3378, Late: 1709, Early: 0, Misses: 3311
b9e-> Hits: 18074, Late: 0, Early: 0, Misses: 0
ba0-> Hits: 16725, Late: 18074, Early: 0, Misses: 0
ba3-> Hits: 25106, Late: 2342, Early: 0, Misses: 0
ba8-> Hits: 18075, Late: 0, Early: 0, Misses: 0
ba9-> Hits: 10703, Late: 0, Early: 0, Misses: 0
bac-> Hits: 2981, Late: 1791, Early: 0, Misses: 97
bad-> Hits: 18074, Late: 0, Early: 0, Misses: 0
baf-> Hits: 31768, Late: 0, Early: 0, Misses: 1
bb0-> Hits: 8, Late: 0, Early: 0, Misses: 0
bb5-> Hits: 10756, Late: 0, Early: 0, Misses: 0
bb7-> Hits: 0, Late: 18074, Early: 0, Misses: 0
bb8-> Hits: 1390, Late: 16668, Early: 0, Misses: 0
bbf-> Hits: 2183, Late: 0, Early: 0, Misses: 0
bc1-> Hits: 35719, Late: 0, Early: 0, Misses: 0
bc4-> Hits: 13813, Late: 452, Early: 0, Misses: 0
bc6-> Hits: 1503, Late: 0, Early: 0, Misses: 22
bc8-> Hits: 6, Late: 0, Early: 0, Misses: 0
bc9-> Hits: 17075, Late: 0, Early: 0, Misses: 0
[...]
cbd-> Hits: 17469, Late: 0, Early: 0, Misses: 0
cc1-> Hits: 15325, Late: 0, Early: 0, Misses: 0
cc2-> Hits: 127, Late: 14258, Early: 0, Misses: 3689
cc6-> Hits: 23138, Late: 13011, Early: 0, Misses: 0
cc7-> Hits: 18074, Late: 0, Early: 0, Misses: 0
cc9-> Hits: 3450, Late: 0, Early: 0, Misses: 0
ccb-> Hits: 2, Late: 0, Early: 0, Misses: 0
ccf-> Hits: 1358, Late: 0, Early: 0, Misses: 0
cd1-> Hits: 31137, Late: 0, Early: 0, Misses: 232
cd3-> Hits: 18074, Late: 0, Early: 0, Misses: 0
cd4-> Hits: 24901, Late: 11247, Early: 0, Misses: 0
cd8-> Hits: 9152, Late: 3896, Early: 0, Misses: 0
cd9-> Hits: 8827, Late: 18074, Early: 0, Misses: 0
cdc-> Hits: 13492, Late: 0, Early: 0, Misses: 0
cdd-> Hits: 12041, Late: 0, Early: 0, Misses: 0
cde-> Hits: 8653, Late: 2011, Early: 0, Misses: 0
ce5-> Hits: 13229, Late: 0, Early: 0, Misses: 0
ce6-> Hits: 3, Late: 0, Early: 0, Misses: 0
ce7-> Hits: 7393, Late: 0, Early: 0, Misses: 0
cea-> Hits: 18074, Late: 0, Early: 0, Misses: 0
ceb-> Hits: 19, Late: 0, Early: 0, Misses: 0
cec-> Hits: 14449, Late: 0, Early: 0, Misses: 0
cef-> Hits: 5296, Late: 12778, Early: 0, Misses: 0
cf1-> Hits: 12090, Late: 0, Early: 0, Misses: 0
cf4-> Hits: 20787, Late: 6100, Early: 0, Misses: 0
cf7-> Hits: 883, Late: 0, Early: 0, Misses: 11
cfa-> Hits: 17356, Late: 0, Early: 0, Misses: 0
cff-> Hits: 36842, Late: 5288, Early: 0, Misses: 12092
d01-> Hits: 1, Late: 0, Early: 0, Misses: 0
d02-> Hits: 12171, Late: 2003, Early: 0, Misses: 0
d05-> Hits: 1415, Late: 0, Early: 0, Misses: 0
d07-> Hits: 22219, Late: 0, Early: 0, Misses: 0
d08-> Hits: 17593, Late: 0, Early: 0, Misses: 0
d09-> Hits: 3, Late: 0, Early: 0, Misses: 0
d0c-> Hits: 1234, Late: 16841, Early: 0, Misses: 0
d0e-> Hits: 15613, Late: 0, Early: 0, Misses: 94
d0f-> Hits: 5939, Late: 12135, Early: 0, Misses: 0
d10-> Hits: 106, Late: 0, Early: 0, Misses: 0
d11-> Hits: 28867, Late: 0, Early: 0, Misses: 0
d14-> Hits: 27580, Late: 2262, Early: 0, Misses: 0
d15-> Hits: 7189, Late: 0, Early: 0, Misses: 0
d16-> Hits: 50, Late: 2033, Early: 0, Misses: 15991
d19-> Hits: 3795, Late: 14408, Early: 0, Misses: 0
d1e-> Hits: 34135, Late: 0, Early: 0, Misses: 0
d1f-> Hits: 8100, Late: 0, Early: 0, Misses: 0
d22-> Hits: 17257, Late: 0, Early: 0, Misses: 0
d24-> Hits: 5837, Late: 12237, Early: 0, Misses: 0
d27-> Hits: 4726, Late: 2207, Early: 0, Misses: 0
d29-> Hits: 27648, Late: 2611, Early: 0, Misses: 246
d2b-> Hits: 17668, Late: 0, Early: 0, Misses: 0
d2c-> Hits: 11247, Late: 981, Early: 0, Misses: 0
d2d-> Hits: 18074, Late: 0, Early: 0, Misses: 0
d2f-> Hits: 17363, Late: 0, Early: 0, Misses: 0
d30-> Hits: 12618, Late: 0, Early: 0, Misses: 0
d31-> Hits: 56, Late: 536, Early: 0, Misses: 17482
d32-> Hits: 18075, Late: 0, Early: 0, Misses: 0
d33-> Hits: 1077, Late: 0, Early: 0, Misses: 0
d34-> Hits: 18074, Late: 0, Early: 0, Misses: 0
d37-> Hits: 19291, Late: 16858, Early: 0, Misses: 0
d38-> Hits: 7602, Late: 10472, Early: 0, Misses: 0
d3c-> Hits: 1929, Late: 0, Early: 0, Misses: 0
d3d-> Hits: 7532, Late: 2607, Early: 0, Misses: 0
d40-> Hits: 18074, Late: 0, Early: 0, Misses: 0
d41-> Hits: 22595, Late: 12351, Early: 0, Misses: 0
d43-> Hits: 12282, Late: 0, Early: 0, Misses: 1
d48-> Hits: 12137, Late: 0, Early: 0, Misses: 0
d49-> Hits: 18075, Late: 0, Early: 0, Misses: 0
d4a-> Hits: 18074, Late: 1, Early: 0, Misses: 0
d4b-> Hits: 128, Late: 147, Early: 0, Misses: 17799
d4d-> Hits: 13100, Late: 0, Early: 0, Misses: 0
d50-> Hits: 5334, Late: 12743, Early: 0, Misses: 0
d52-> Hits: 8593, Late: 0, Early: 0, Misses: 0
d53-> Hits: 18074, Late: 0, Early: 0, Misses: 0
d55-> Hits: 5283, Late: 3422, Early: 0, Misses: 0
d56-> Hits: 15862, Late: 0, Early: 0, Misses: 0
d5c-> Hits: 18069, Late: 0, Early: 0, Misses: 0
d5e-> Hits: 725, Late: 0, Early: 0, Misses: 0
d63-> Hits: 18769, Late: 0, Early: 0, Misses: 0
d64-> Hits: 23671, Late: 0, Early: 0, Misses: 237
d65-> Hits: 12119, Late: 0, Early: 0, Misses: 0
d68-> Hits: 17736, Late: 0, Early: 0, Misses: 338
d69-> Hits: 390, Late: 17685, Early: 0, Misses: 0
d6c-> Hits: 18126, Late: 0, Early: 0, Misses: 0
d6d-> Hits: 18074, Late: 0, Early: 0, Misses: 0
d6e-> Hits: 11942, Late: 2447, Early: 0, Misses: 0
d6f-> Hits: 238, Late: 0, Early: 0, Misses: 2
d70-> Hits: 10037, Late: 18074, Early: 0, Misses: 0
d74-> Hits: 7208, Late: 0, Early: 0, Misses: 0
d76-> Hits: 18932, Late: 0, Early: 0, Misses: 0
d79-> Hits: 18074, Late: 0, Early: 0, Misses: 0
d7b-> Hits: 18074, Late: 0, Early: 0, Misses: 0
d7c-> Hits: 1403, Late: 16672, Early: 0, Misses: 0
d7e-> Hits: 143, Late: 17931, Early: 0, Misses: 0
d82-> Hits: 25628, Late: 0, Early: 0, Misses: 0
d87-> Hits: 14263, Late: 0, Early: 0, Misses: 0
d8a-> Hits: 9403, Late: 1717, Early: 0, Misses: 0
d8e-> Hits: 9, Late: 13766, Early: 0, Misses: 4299
d8f-> Hits: 30961, Late: 5187, Early: 0, Misses: 0
d90-> Hits: 100, Late: 0, Early: 0, Misses: 0
d94-> Hits: 32338, Late: 0, Early: 0, Misses: 0
d98-> Hits: 16013, Late: 0, Early: 0, Misses: 0
d99-> Hits: 113, Late: 0, Early: 0, Misses: 0
d9c-> Hits: 21847, Late: 30866, Early: 0, Misses: 0
d9d-> Hits: 17258, Late: 0, Early: 0, Misses: 0
da1-> Hits: 27822, Late: 2501, Early: 0, Misses: 0
da5-> Hits: 4400, Late: 0, Early: 0, Misses: 0
da6-> Hits: 4, Late: 0, Early: 0, Misses: 0
da7-> Hits: 471, Late: 17603, Early: 0, Misses: 0
dab-> Hits: 5861, Late: 0, Early: 0, Misses: 0
daf-> Hits: 1108, Late: 84, Early: 0, Misses: 0
db2-> Hits: 18762, Late: 4254, Early: 0, Misses: 272
db3-> Hits: 4744, Late: 13331, Early: 0, Misses: 0
db4-> Hits: 864, Late: 0, Early: 0, Misses: 0
db8-> Hits: 8806, Late: 0, Early: 0, Misses: 0
dbd-> Hits: 11650, Late: 2575, Early: 0, Misses: 0
dcb-> Hits: 26166, Late: 0, Early: 0, Misses: 0
dcd-> Hits: 6027, Late: 2543, Early: 0, Misses: 0
dcf-> Hits: 12649, Late: 2312, Early: 0, Misses: 0
dd3-> Hits: 11, Late: 0, Early: 0, Misses: 0
dd4-> Hits: 12240, Late: 0, Early: 0, Misses: 0
dd6-> Hits: 8452, Late: 0, Early: 0, Misses: 0
dd8-> Hits: 17582, Late: 0, Early: 0, Misses: 0
dd9-> Hits: 11149, Late: 2077, Early: 0, Misses: 0
ddc-> Hits: 18074, Late: 0, Early: 0, Misses: 0
dde-> Hits: 29371, Late: 1335, Early: 0, Misses: 0
de3-> Hits: 1166, Late: 16909, Early: 0, Misses: 0
de5-> Hits: 13665, Late: 0, Early: 0, Misses: 0
de8-> Hits: 14240, Late: 0, Early: 0, Misses: 0
de9-> Hits: 17059, Late: 0, Early: 0, Misses: 0
dea-> Hits: 18074, Late: 0, Early: 0, Misses: 0
dec-> Hits: 11552, Late: 0, Early: 0, Misses: 124
ded-> Hits: 4164, Late: 13911, Early: 0, Misses: 0
df2-> Hits: 25002, Late: 2540, Early: 0, Misses: 0
df5-> Hits: 19, Late: 0, Early: 0, Misses: 0
df6-> Hits: 18105, Late: 0, Early: 0, Misses: 0
df7-> Hits: 15619, Late: 1086, Early: 0, Misses: 0
df9-> Hits: 19, Late: 0, Early: 0, Misses: 0
dfb-> Hits: 25256, Late: 10714, Early: 0, Misses: 0
e00-> Hits: 10610, Late: 0, Early: 0, Misses: 0
e05-> Hits: 8502, Late: 2084, Early: 0, Misses: 0
e06-> Hits: 2207, Late: 15867, Early: 0, Misses: 0
e0a-> Hits: 18067, Late: 0, Early: 0, Misses: 0
e0d-> Hits: 15831, Late: 0, Early: 0, Misses: 0
e0e-> Hits: 8367, Late: 0, Early: 0, Misses: 0
e0f-> Hits: 6127, Late: 0, Early: 0, Misses: 0
e12-> Hits: 10517, Late: 2023, Early: 0, Misses: 0
e13-> Hits: 18074, Late: 0, Early: 0, Misses: 0
e16-> Hits: 5577, Late: 12498, Early: 0, Misses: 0
e17-> Hits: 18074, Late: 0, Early: 0, Misses: 0
e18-> Hits: 12584, Late: 2236, Early: 0, Misses: 0
e1b-> Hits: 12875, Late: 3632, Early: 0, Misses: 0
e1f-> Hits: 1235, Late: 0, Early: 0, Misses: 0
e22-> Hits: 18074, Late: 0, Early: 0, Misses: 0
e26-> Hits: 16637, Late: 0, Early: 0, Misses: 0
e27-> Hits: 13243, Late: 2308, Early: 0, Misses: 0
e2a-> Hits: 17555, Late: 0, Early: 0, Misses: 0
e2d-> Hits: 18074, Late: 0, Early: 0, Misses: 0
e2e-> Hits: 3882, Late: 0, Early: 0, Misses: 0
e33-> Hits: 2310, Late: 0, Early: 0, Misses: 0
e35-> Hits: 2699, Late: 0, Early: 0, Misses: 0
e36-> Hits: 37578, Late: 10602, Early: 0, Misses: 136
e3b-> Hits: 6055, Late: 2415, Early: 0, Misses: 0
e3d-> Hits: 2652, Late: 15415, Early: 0, Misses: 0
e3e-> Hits: 30588, Late: 1, Early: 0, Misses: 5559
e40-> Hits: 34136, Late: 57, Early: 0, Misses: 0
e44-> Hits: 2485, Late: 0, Early: 0, Misses: 0
e46-> Hits: 8433, Late: 0, Early: 0, Misses: 0
e47-> Hits: 15655, Late: 0, Early: 0, Misses: 0
e49-> Hits: 13034, Late: 676, Early: 0, Misses: 0
e4b-> Hits: 6770, Late: 11305, Early: 0, Misses: 0
e4f-> Hits: 17841, Late: 0, Early: 0, Misses: 0
e50-> Hits: 11185, Late: 2850, Early: 0, Misses: 0
e54-> Hits: 34275, Late: 0, Early: 0, Misses: 0
e57-> Hits: 14270, Late: 1405, Early: 0, Misses: 0
e5a-> Hits: 1574, Late: 0, Early: 0, Misses: 0
e5c-> Hits: 14364, Late: 2064, Early: 0, Misses: 0
e5d-> Hits: 5543, Late: 0, Early: 0, Misses: 0
e5f-> Hits: 6868, Late: 11207, Early: 0, Misses: 0
e64-> Hits: 8733, Late: 3167, Early: 0, Misses: 0
e66-> Hits: 536, Late: 0, Early: 0, Misses: 0
e6b-> Hits: 34611, Late: 1374, Early: 0, Misses: 0
e6f-> Hits: 28819, Late: 0, Early: 0, Misses: 0
e70-> Hits: 1, Late: 0, Early: 0, Misses: 0
e72-> Hits: 16083, Late: 1991, Early: 0, Misses: 0
e77-> Hits: 6063, Late: 12012, Early: 0, Misses: 0
e78-> Hits: 1, Late: 0, Early: 0, Misses: 0
e79-> Hits: 1, Late: 18074, Early: 0, Misses: 0
e7a-> Hits: 1, Late: 0, Early: 0, Misses: 0
e7c-> Hits: 9444, Late: 3210, Early: 0, Misses: 0
e7e-> Hits: 1, Late: 0, Early: 0, Misses: 0
e80-> Hits: 1, Late: 0, Early: 0, Misses: 0
e82-> Hits: 3, Late: 0, Early: 0, Misses: 0
e83-> Hits: 1286, Late: 1998, Early: 0, Misses: 0
e86-> Hits: 18074, Late: 0, Early: 0, Misses: 0
e8d-> Hits: 28416, Late: 2291, Early: 0, Misses: 38
e8f-> Hits: 32179, Late: 1, Early: 0, Misses: 148
e97-> Hits: 464, Late: 17611, Early: 0, Misses: 0
e99-> Hits: 18074, Late: 0, Early: 0, Misses: 0
e9c-> Hits: 0, Late: 18075, Early: 0, Misses: 0
ea0-> Hits: 18028, Late: 0, Early: 0, Misses: 0
ea1-> Hits: 3, Late: 0, Early: 0, Misses: 0
ea3-> Hits: 46, Late: 18028, Early: 0, Misses: 0
ea8-> Hits: 6653, Late: 4767, Early: 0, Misses: 0
ea9-> Hits: 18074, Late: 0, Early: 0, Misses: 0
eab-> Hits: 17384, Late: 0, Early: 0, Misses: 0
eaf-> Hits: 14, Late: 18061, Early: 0, Misses: 0
eb8-> Hits: 2437, Late: 524, Early: 0, Misses: 0
ebc-> Hits: 18347, Late: 17802, Early: 0, Misses: 0
ebe-> Hits: 18074, Late: 0, Early: 0, Misses: 0
ec2-> Hits: 6666, Late: 2398, Early: 0, Misses: 87
ec7-> Hits: 9809, Late: 0, Early: 0, Misses: 0
ece-> Hits: 18074, Late: 0, Early: 0, Misses: 0
ecf-> Hits: 452, Late: 2287, Early: 0, Misses: 0
ed1-> Hits: 2, Late: 0, Early: 0, Misses: 0
ed6-> Hits: 12035, Late: 0, Early: 0, Misses: 0
eda-> Hits: 18849, Late: 0, Early: 0, Misses: 0
edb-> Hits: 14319, Late: 1399, Early: 0, Misses: 0
ede-> Hits: 18074, Late: 0, Early: 0, Misses: 0
ee0-> Hits: 18075, Late: 0, Early: 0, Misses: 0
eec-> Hits: 7665, Late: 2343, Early: 0, Misses: 0
eee-> Hits: 17563, Late: 0, Early: 0, Misses: 0
ef1-> Hits: 12527, Late: 0, Early: 0, Misses: 0
ef2-> Hits: 13162, Late: 2074, Early: 0, Misses: 0
ef5-> Hits: 18074, Late: 0, Early: 0, Misses: 0
efb-> Hits: 18074, Late: 0, Early: 0, Misses: 0
f01-> Hits: 60, Late: 18015, Early: 0, Misses: 0
f03-> Hits: 16990, Late: 0, Early: 0, Misses: 1084
f08-> Hits: 14685, Late: 0, Early: 0, Misses: 0
f0c-> Hits: 18072, Late: 0, Early: 0, Misses: 2
f0d-> Hits: 12703, Late: 1656, Early: 0, Misses: 0
f12-> Hits: 15022, Late: 2201, Early: 0, Misses: 0
f14-> Hits: 17432, Late: 0, Early: 0, Misses: 0
f15-> Hits: 17829, Late: 0, Early: 0, Misses: 0
f18-> Hits: 18074, Late: 0, Early: 0, Misses: 0
f19-> Hits: 18075, Late: 0, Early: 0, Misses: 0
f1d-> Hits: 16804, Late: 0, Early: 0, Misses: 0
f1e-> Hits: 18074, Late: 0, Early: 0, Misses: 0
f21-> Hits: 13430, Late: 2313, Early: 0, Misses: 0
f27-> Hits: 18075, Late: 0, Early: 0, Misses: 0
f2a-> Hits: 17690, Late: 0, Early: 0, Misses: 0
f2e-> Hits: 18074, Late: 0, Early: 0, Misses: 0
f31-> Hits: 12846, Late: 0, Early: 0, Misses: 0
f33-> Hits: 1826, Late: 0, Early: 0, Misses: 0
f36-> Hits: 13251, Late: 4823, Early: 0, Misses: 0
f37-> Hits: 806, Late: 17251, Early: 0, Misses: 0
f3b-> Hits: 18074, Late: 0, Early: 0, Misses: 0
f3d-> Hits: 18074, Late: 0, Early: 0, Misses: 0
f3e-> Hits: 19351, Late: 0, Early: 0, Misses: 0
f3f-> Hits: 16629, Late: 0, Early: 0, Misses: 0
f42-> Hits: 1, Late: 0, Early: 0, Misses: 0
f43-> Hits: 13105, Late: 316, Early: 0, Misses: 0
f46-> Hits: 18074, Late: 0, Early: 0, Misses: 0
f48-> Hits: 53589, Late: 0, Early: 0, Misses: 0
f4c-> Hits: 6, Late: 0, Early: 0, Misses: 0
f50-> Hits: 13401, Late: 1832, Early: 0, Misses: 0
f52-> Hits: 28164, Late: 3222, Early: 0, Misses: 0
f56-> Hits: 13683, Late: 2145, Early: 0, Misses: 0
f58-> Hits: 34894, Late: 639, Early: 0, Misses: 0
f5f-> Hits: 15567, Late: 0, Early: 0, Misses: 0
f60-> Hits: 2, Late: 0, Early: 0, Misses: 0
f61-> Hits: 18074, Late: 0, Early: 0, Misses: 0
f64-> Hits: 17122, Late: 0, Early: 0, Misses: 0
f65-> Hits: 16277, Late: 1732, Early: 0, Misses: 0
f6a-> Hits: 18074, Late: 0, Early: 0, Misses: 0
f6c-> Hits: 15832, Late: 2243, Early: 0, Misses: 0
f6d-> Hits: 12754, Late: 0, Early: 0, Misses: 0
f70-> Hits: 31436, Late: 2293, Early: 0, Misses: 0
f73-> Hits: 17615, Late: 18075, Early: 0, Misses: 0
f76-> Hits: 17557, Late: 0, Early: 0, Misses: 0
f79-> Hits: 18074, Late: 0, Early: 0, Misses: 0
f7d-> Hits: 28164, Late: 1783, Early: 0, Misses: 0
f7e-> Hits: 11530, Late: 2197, Early: 0, Misses: 0
f80-> Hits: 18074, Late: 0, Early: 0, Misses: 0
f83-> Hits: 71, Late: 18003, Early: 0, Misses: 0
f89-> Hits: 1192, Late: 16882, Early: 0, Misses: 0
f8c-> Hits: 18074, Late: 0, Early: 0, Misses: 0
f8d-> Hits: 18074, Late: 0, Early: 0, Misses: 0
f8f-> Hits: 42, Late: 18033, Early: 0, Misses: 0
f90-> Hits: 18074, Late: 0, Early: 0, Misses: 0
f92-> Hits: 17404, Late: 0, Early: 0, Misses: 0
f93-> Hits: 18074, Late: 0, Early: 0, Misses: 0
f94-> Hits: 4108, Late: 5793, Early: 0, Misses: 0
f95-> Hits: 18074, Late: 0, Early: 0, Misses: 0
f97-> Hits: 17744, Late: 2235, Early: 0, Misses: 0
f99-> Hits: 12496, Late: 1, Early: 0, Misses: 5577
f9a-> Hits: 30901, Late: 5247, Early: 0, Misses: 0
f9c-> Hits: 11957, Late: 959, Early: 0, Misses: 0
f9e-> Hits: 15245, Late: 471, Early: 0, Misses: 0
fa0-> Hits: 238, Late: 4516, Early: 0, Misses: 11293
fa2-> Hits: 18074, Late: 0, Early: 0, Misses: 0
fa4-> Hits: 1727, Late: 190, Early: 0, Misses: 0
fa5-> Hits: 17978, Late: 0, Early: 0, Misses: 0
fa6-> Hits: 224, Late: 4, Early: 0, Misses: 1132
fa7-> Hits: 1835, Late: 16239, Early: 0, Misses: 0
fa8-> Hits: 3706, Late: 0, Early: 0, Misses: 0
faa-> Hits: 18074, Late: 0, Early: 0, Misses: 0
fab-> Hits: 17624, Late: 22, Early: 0, Misses: 428
fac-> Hits: 17455, Late: 0, Early: 0, Misses: 0
fad-> Hits: 8289, Late: 0, Early: 0, Misses: 0
fb0-> Hits: 1, Late: 18059, Early: 0, Misses: 0
fb1-> Hits: 894, Late: 17180, Early: 0, Misses: 0
fb4-> Hits: 18458, Late: 0, Early: 0, Misses: 0
fb6-> Hits: 134, Late: 0, Early: 0, Misses: 0
fba-> Hits: 18074, Late: 0, Early: 0, Misses: 0
fbb-> Hits: 2056, Late: 16019, Early: 0, Misses: 0
fbe-> Hits: 18456, Late: 17007, Early: 0, Misses: 0
fbf-> Hits: 17451, Late: 0, Early: 0, Misses: 0
fc2-> Hits: 17703, Late: 0, Early: 0, Misses: 0
fc4-> Hits: 915, Late: 4135, Early: 0, Misses: 0
fc7-> Hits: 17084, Late: 0, Early: 0, Misses: 0
fc8-> Hits: 18074, Late: 0, Early: 0, Misses: 0
fcd-> Hits: 17972, Late: 0, Early: 0, Misses: 0
fcf-> Hits: 12754, Late: 369, Early: 0, Misses: 0
fd0-> Hits: 18074, Late: 0, Early: 0, Misses: 0
fd1-> Hits: 18074, Late: 0, Early: 0, Misses: 0
fd2-> Hits: 458, Late: 17616, Early: 0, Misses: 0
fd3-> Hits: 18074, Late: 1, Early: 0, Misses: 0
fd6-> Hits: 17762, Late: 0, Early: 0, Misses: 312
fd7-> Hits: 12763, Late: 2415, Early: 0, Misses: 0
fd8-> Hits: 13790, Late: 4284, Early: 0, Misses: 0
fda-> Hits: 17971, Late: 0, Early: 0, Misses: 0
fdd-> Hits: 7568, Late: 0, Early: 0, Misses: 0
fde-> Hits: 16911, Late: 0, Early: 0, Misses: 0
fe3-> Hits: 39688, Late: 0, Early: 0, Misses: 0
fe4-> Hits: 4645, Late: 2209, Early: 0, Misses: 2344
fe5-> Hits: 19073, Late: 17075, Early: 0, Misses: 0
fea-> Hits: 17904, Late: 0, Early: 0, Misses: 0
fec-> Hits: 18074, Late: 0, Early: 0, Misses: 0
fee-> Hits: 3478, Late: 2511, Early: 0, Misses: 0
ff0-> Hits: 17899, Late: 0, Early: 0, Misses: 0
ff1-> Hits: 17788, Late: 121, Early: 0, Misses: 165
ff2-> Hits: 9679, Late: 1566, Early: 0, Misses: 0
ff5-> Hits: 9802, Late: 0, Early: 0, Misses: 0
ff6-> Hits: 15873, Late: 0, Early: 0, Misses: 0
ff9-> Hits: 18097, Late: 18051, Early: 0, Misses: 0
ffb-> Hits: 255, Late: 0, Early: 0, Misses: 0
ffd-> Hits: 2350, Late: 2485, Early: 0, Misses: 0
ffe-> Hits: 17776, Late: 0, Early: 0, Misses: 298
fff-> Hits: 18074, Late: 0, Early: 0, Misses: 0
Total misses (from ip) 6379210
Total accesses (misses) 30371141 6379210
Pref: Addr 0 IP 0 Current 0
 All Calls: 7971991
 Critical Calls: 7971991
------------------
Depth Distribution
------------------
depth 0: 0
depth 1: 4941346
depth 2: 51267
depth 3: 47
depth 4: 16
depth 5: 7
depth 6: 3
depth 7: 2
depth 8: 0
depth 9: 0
depth 10: 0
depth 11: 0
depth 12: 0
depth 13: 0
depth 14: 0
depth 15: 0
depth 16: 0
depth 17: 0
depth 18: 0
depth 19: 0
depth 20: 0
depth 21: 0
depth 22: 0
depth 23: 0
depth 24: 0
depth 25: 0
depth 26: 0
depth 27: 0
depth 28: 0
depth 29: 0
Total: 4992688
-----------------------------
-----------------------------
	Captured at Filter
-----------------------------
depth 0: 0
depth 1: 88426
depth 2: 4906
depth 3: 9
depth 4: 4
depth 5: 3
depth 6: 0
depth 7: 0
depth 8: 0
depth 9: 0
depth 10: 0
depth 11: 0
depth 12: 0
depth 13: 0
depth 14: 0
depth 15: 0
depth 16: 0
depth 17: 0
depth 18: 0
depth 19: 0
depth 20: 0
depth 21: 0
depth 22: 0
depth 23: 0
depth 24: 0
depth 25: 0
depth 26: 0
depth 27: 0
depth 28: 0
depth 29: 0
-----------------------------
-----------------------------
		Lost at Page
-----------------------------
depth 0: 0
depth 1: 1287532
depth 2: 3014
depth 3: 9
depth 4: 6
depth 5: 4
depth 6: 3
depth 7: 0
depth 8: 0
depth 9: 0
depth 10: 0
depth 11: 0
depth 12: 0
depth 13: 0
depth 14: 0
depth 15: 0
depth 16: 0
depth 17: 0
depth 18: 0
depth 19: 0
depth 20: 0
depth 21: 0
depth 22: 0
depth 23: 0
depth 24: 0
depth 25: 0
depth 26: 0
depth 27: 0
depth 28: 0
depth 29: 0
-----------------------------
-----------------------------
	Lost due to PQ Size
-----------------------------
162829
-----------------------------
ST read accesses: 3951600
ST write accesses: 1578
PT read accesses: 43013512
PT write accesses: 4933860
FILTER read accesses: 6963585
FILTER write accesses: 383124
GHR read accesses: 4362805
GHR write accesses: 621731
GHR counter read accesses: 34848960
GHR counter write accesses: 3991450
ST tag read accesses: 1516549145
ST tag write accesses: 285849791

DRAM Statistics
 CHANNEL 0
 RQ ROW_BUFFER_HIT:      71270  ROW_BUFFER_MISS:      59064
 DBUS_CONGESTED:        152
 WQ ROW_BUFFER_HIT:       8733  ROW_BUFFER_MISS:      19037  FULL:          0

 AVG_CONGESTED_CYCLE: 4
 All warmup complete: 2
Channel 0 Bank busy for read cycles: 0
Channel 0 Bank busy for write cycles: 0
Channel 0
Rank 0
0banks busy for read cycles: 44189463
0banks busy for write cycles: 13884
1banks busy for read cycles: 5984395
1banks busy for write cycles: 1864211
2banks busy for read cycles: 1588761
2banks busy for write cycles: 535064
3banks busy for read cycles: 461223
3banks busy for write cycles: 229246
4banks busy for read cycles: 161663
4banks busy for write cycles: 110713
5banks busy for read cycles: 97478
5banks busy for write cycles: 50714
6banks busy for read cycles: 76115
6banks busy for write cycles: 26648
7banks busy for read cycles: 33833
7banks busy for write cycles: 10726
8banks busy for read cycles: 6357
8banks busy for write cycles: 1318

CPU 0 Branch Prediction Accuracy: 99.9878% MPKI: 0.00108 Average ROB Occupancy at Mispredict: 27.2222
Branch types
NOT_BRANCH: 49556772 99.1135%
BRANCH_DIRECT_JUMP: 54228 0.108456%
BRANCH_INDIRECT: 9038 0.018076%
BRANCH_CONDITIONAL: 271248 0.542496%
BRANCH_DIRECT_CALL: 54228 0.108456%
BRANCH_INDIRECT_CALL: 0 0%
BRANCH_RETURN: 54228 0.108456%
BRANCH_OTHER: 0 0%

DRAM PAGES: 1048576
Allocated PAGES: 4562
