Initialize SIGNATURE TABLE
ST_SET: 1
ST_WAY: 256
ST_TAG_BIT: 16
ST_TAG_MASK: ffff

Initialize PATTERN TABLE
PT_SET: 512
PT_WAY: 4
SIG_DELTA_BIT: 7
C_SIG_BIT: 4
C_DELTA_BIT: 4

Initialize PREFETCH FILTER
FILTER_SET: 1024

*** ChampSim Multicore Out-of-Order Simulator ***

Warmup Instructions: 50000000
Simulation Instructions: 50000000
Number of CPUs: 1
LLC sets: 2048
LLC ways: 16
Off-chip DRAM Size: 4096 MB Channels: 1 Width: 64-bit Data Rate: 6400 MT/s
CPU 0 runs ./tracer/traces/621.wrf_s-6673B.champsimtrace.xz
.xz
CPU 0 Bimodal branch predictor
BTB has LRU replacement policy
ITLB has LRU replacement policy
DTLB has LRU replacement policy
STLB has LRU replacement policy
L1I has LRU replacement policy
CPU 0 L1D Berti prefetcher
L1D has LRU replacement policy
ST_WAYS: 256
PT_SETS: 512
L2C has LRU replacement policy
LLC has LRU replacement policy
Heartbeat CPU 0 instructions: 10000002 cycles: 3559631 heartbeat IPC: 2.80928 cumulative IPC: 2.80928 (Simulation time: 0 hr 0 min 55 sec) 
Heartbeat CPU 0 instructions: 20000003 cycles: 6464647 heartbeat IPC: 3.44232 cumulative IPC: 3.09375 (Simulation time: 0 hr 1 min 42 sec) 
Heartbeat CPU 0 instructions: 30000000 cycles: 9284482 heartbeat IPC: 3.54631 cumulative IPC: 3.2312 (Simulation time: 0 hr 2 min 41 sec) 
Heartbeat CPU 0 instructions: 40000002 cycles: 12169953 heartbeat IPC: 3.46564 cumulative IPC: 3.28678 (Simulation time: 0 hr 3 min 40 sec) 
Heartbeat CPU 0 instructions: 50000000 cycles: 15071727 heartbeat IPC: 3.44617 cumulative IPC: 3.31747 (Simulation time: 0 hr 4 min 44 sec) 

Warmup complete CPU 0 instructions: 50000004 cycles: 15071728 (Simulation time: 0 hr 4 min 44 sec) 

Heartbeat CPU 0 instructions: 60000001 cycles: 27913663 heartbeat IPC: 0.778699 cumulative IPC: 0.778699 (Simulation time: 0 hr 6 min 27 sec) 
Heartbeat CPU 0 instructions: 70000000 cycles: 43070788 heartbeat IPC: 0.659756 cumulative IPC: 0.71431 (Simulation time: 0 hr 8 min 30 sec) 
Heartbeat CPU 0 instructions: 80000000 cycles: 54892562 heartbeat IPC: 0.845897 cumulative IPC: 0.753374 (Simulation time: 0 hr 10 min 17 sec) 
Heartbeat CPU 0 instructions: 90000003 cycles: 67737162 heartbeat IPC: 0.778538 cumulative IPC: 0.759511 (Simulation time: 0 hr 12 min 15 sec) 
Heartbeat CPU 0 instructions: 100000000 cycles: 83580019 heartbeat IPC: 0.631199 cumulative IPC: 0.729839 (Simulation time: 0 hr 14 min 33 sec) 
Finished CPU 0 instructions: 50000002 cycles: 68508294 cumulative IPC: 0.729839 (Simulation time: 0 hr 14 min 33 sec) 

ChampSim completed all CPUs

Region of Interest Statistics

CPU 0 cumulative IPC: 0.729839 instructions: 50000002 cycles: 68508294
ITLB TOTAL     ACCESS:    7541144  HIT:    7541063  MISS:         81  HIT %:    99.9989  MISS %: 0.00107411   MPKI: 0.00162
ITLB LOAD TRANSLATION ACCESS:    7541144  HIT:    7541063  MISS:         81  HIT %:    99.9989  MISS %: 0.00107411   MPKI: 0.00162
ITLB PREFETCH  REQUESTED:          0  ISSUED:          0  USEFUL:          0  USELESS:          0
ITLB USEFUL LOAD PREFETCHES:          0 PREFETCH ISSUED TO LOWER LEVEL:          0  ACCURACY: -nan
ITLB TIMELY PREFETCHES:          0 LATE PREFETCHES: 0 DROPPED PREFETCHES: 0
ITLB PREFETCHES SAME FILL-ORIGIN LEVEL: 0 DIFFERENT FILL-ORIGIN LEVEL: 0
ITLB AVERAGE MISS LATENCY: 235.259 cycles
ITLB RQ	ACCESS:    9394480	FORWARD:          0	MERGED:    1853307	TO_CACHE:    7541173

DTLB TOTAL     ACCESS:   14877577  HIT:   14729337  MISS:     148240  HIT %:    99.0036  MISS %:   0.996399   MPKI: 2.9648
DTLB LOAD TRANSLATION ACCESS:   14877577  HIT:   14729337  MISS:     148240  HIT %:    99.0036  MISS %:   0.996399   MPKI: 2.9648
DTLB PREFETCH  REQUESTED:          0  ISSUED:          0  USEFUL:          0  USELESS:          0
DTLB USEFUL LOAD PREFETCHES:          0 PREFETCH ISSUED TO LOWER LEVEL:          0  ACCURACY: -nan
DTLB TIMELY PREFETCHES:          0 LATE PREFETCHES: 0 DROPPED PREFETCHES: 0
DTLB PREFETCHES SAME FILL-ORIGIN LEVEL: 0 DIFFERENT FILL-ORIGIN LEVEL: 0
DTLB AVERAGE MISS LATENCY: 15.51 cycles
DTLB RQ	ACCESS:   16843797	FORWARD:          0	MERGED:    1947883	TO_CACHE:   14895914

STLB TOTAL     ACCESS:    9455662  HIT:    9440364  MISS:      15298  HIT %:    99.8382  MISS %:   0.161787   MPKI: 0.30596
STLB LOAD TRANSLATION ACCESS:     148321  HIT:     144408  MISS:       3913  HIT %:    97.3618  MISS %:     2.6382   MPKI: 0.07826
STLB TRANSLATION FROM L1D PREFETCHER ACCESS:    9307341  HIT:    9295956  MISS:      11385  HIT %:    99.8777  MISS %:   0.122323   MPKI: 0.2277
STLB PREFETCH  REQUESTED:          0  ISSUED:          0  USEFUL:      11379  USELESS:          6
STLB USEFUL LOAD PREFETCHES:      11379 PREFETCH ISSUED TO LOWER LEVEL:          0  ACCURACY: inf
STLB TIMELY PREFETCHES:      11379 LATE PREFETCHES: 432 DROPPED PREFETCHES: 2116
STLB PREFETCHES SAME FILL-ORIGIN LEVEL: 0 DIFFERENT FILL-ORIGIN LEVEL: 0
STLB AVERAGE MISS LATENCY: 75976.6 cycles
STLB RQ	ACCESS:   10984472	FORWARD:          0	MERGED:    1523730	TO_CACHE:    9460742

STLB Hit, L1D data hit: 0
STLB Hit, L2C data hit: 0
STLB Hit, LLC data hit: 0
STLB Hit, LLC data miss: 0
STLB STLB hints to L2: 0
L1D TOTAL     ACCESS:   26439743  HIT:   24597465  MISS:    1842278  HIT %:    93.0322  MISS %:    6.96784   MPKI: 36.8456
L1D LOAD      ACCESS:   13242841  HIT:   12962704  MISS:     280137  HIT %:    97.8846  MISS %:    2.11538   MPKI: 5.60274
L1D RFO       ACCESS:    3130036  HIT:    2920742  MISS:     209294  HIT %:    93.3134  MISS %:    6.68663   MPKI: 4.18588
L1D PREFETCH  ACCESS:   10066866  HIT:    8714019  MISS:    1352847  HIT %:    86.5614  MISS %:    13.4386   MPKI: 27.0569
AGUS PREFETCH L1 MISS: 0
L1D PREFETCH  REQUESTED:   22646772  ISSUED:   22646772  USEFUL:    1234683  USELESS:     118229
L1D USEFUL LOAD PREFETCHES:    1234683 PREFETCH ISSUED TO LOWER LEVEL:    1438158  ACCURACY: 85.8517
L1D TIMELY PREFETCHES:    1234683 LATE PREFETCHES: 63751 DROPPED PREFETCHES: 2278
L1D PREFETCHES SAME FILL-ORIGIN LEVEL: 1438158 DIFFERENT FILL-ORIGIN LEVEL: 0
L1D AVERAGE MISS LATENCY: 1.9641e+06 cycles
L1D RQ	ACCESS:   16715155	FORWARD:          0	MERGED:    3349490	TO_CACHE:   13357534
L1D WQ	ACCESS:    3489006	FORWARD:       8289	MERGED:       2743	TO_CACHE:    3486263
L1D PQ	ACCESS:   11810621	FORWARD:          0	MERGED:     974312	TO_CACHE:   10836151

L1D UNIQUE REGIONS ACCESSED: 0
L1D REGIONS CONFLICTS: 0
L1D Cross Page Prefetch Requests: 0
L1D Same Page Prefetch Requests: 20724270
L1D ROI Sum of L1D PQ occupancy: 204223982
L1D PREFETCHES PUSHED FROM L2C: 0
L1I TOTAL     ACCESS:    9393085  HIT:    9390307  MISS:       2778  HIT %:    99.9704  MISS %:  0.0295749   MPKI: 0.05556
L1I LOAD      ACCESS:    9393085  HIT:    9390307  MISS:       2778  HIT %:    99.9704  MISS %:  0.0295749   MPKI: 0.05556
L1I PREFETCH  REQUESTED:          0  ISSUED:          0  USEFUL:          0  USELESS:          0
L1I USEFUL LOAD PREFETCHES:          0 PREFETCH ISSUED TO LOWER LEVEL:          0  ACCURACY: -nan
L1I TIMELY PREFETCHES:          0 LATE PREFETCHES: 0 DROPPED PREFETCHES: 0
L1I PREFETCHES SAME FILL-ORIGIN LEVEL: 0 DIFFERENT FILL-ORIGIN LEVEL: 0
L1I AVERAGE MISS LATENCY: 218.405 cycles
L1I RQ	ACCESS:   12962107	FORWARD:          0	MERGED:    3567627	TO_CACHE:    9394480

BTB TOTAL     ACCESS:    2203352  HIT:    2197118  MISS:       6234  HIT %:    99.7171  MISS %:   0.282933   MPKI: 0.12468
BTB BRANCH_DIRECT_JUMP	ACCESS:       3916  HIT:       3875  MISS:         41
BTB BRANCH_INDIRECT	ACCESS:          0  HIT:          0  MISS:          0
BTB BRANCH_CONDITIONAL	ACCESS:    2181744  HIT:    2181272  MISS:        472
BTB BRANCH_DIRECT_CALL	ACCESS:       8847  HIT:       8610  MISS:        237
BTB BRANCH_INDIRECT_CALL	ACCESS:          0  HIT:          0  MISS:          0
BTB BRANCH_RETURN	ACCESS:       8845  HIT:       3361  MISS:       5484
BTB BRANCH_OTHER ACCESS:           0  HIT:          0  MISS:          0

L2C TOTAL     ACCESS:    4038253  HIT:    2709314  MISS:    1328939  HIT %:    67.0912  MISS %:    32.9088   MPKI: 26.5788
L2C LOAD      ACCESS:     219159  HIT:      90337  MISS:     128822  HIT %:    41.2198  MISS %:    58.7802   MPKI: 2.57644
L2C DATA LOAD MPKI: 2.52088
L2C INSTRUCTION LOAD MPKI: 0.05556
L2C RFO       ACCESS:     209191  HIT:     101319  MISS:     107872  HIT %:    48.4337  MISS %:    51.5663   MPKI: 2.15744
L2C PREFETCH  ACCESS:    2984779  HIT:    1895405  MISS:    1089374  HIT %:    63.5024  MISS %:    36.4976   MPKI: 21.7875
AGUS PREFETCH L1 MISS: 0
L2C DATA PREFETCH MPKI: 21.7875
L2C INSTRUCTION PREFETCH MPKI: 0
L2C WRITEBACK ACCESS:     607568  HIT:     607339  MISS:        229  HIT %:    99.9623  MISS %:  0.0376913   MPKI: 0.00458
L2C LOAD TRANSLATION ACCESS:       3601  HIT:       2669  MISS:        932  HIT %:    74.1183  MISS %:    25.8817   MPKI: 0.01864
L2C TRANSLATION FROM L1D PREFETCHER ACCESS:      13955  HIT:      12245  MISS:       1710  HIT %:    87.7463  MISS %:    12.2537   MPKI: 0.0342
L2C PREFETCH  REQUESTED:    5359361  ISSUED:    4849120  USEFUL:      56945  USELESS:    1041271
L2C USEFUL LOAD PREFETCHES:      56945 PREFETCH ISSUED TO LOWER LEVEL:    4124365  ACCURACY: 1.3807
L2C TIMELY PREFETCHES:      56945 LATE PREFETCHES: 400 DROPPED PREFETCHES: 0
L2C PREFETCHES SAME FILL-ORIGIN LEVEL: 323350 DIFFERENT FILL-ORIGIN LEVEL: 3032873
L2C AVERAGE MISS LATENCY: 186.928 cycles
L2C RQ	ACCESS:     445926	FORWARD:          0	MERGED:          0	TO_CACHE:     445916
L2C WQ	ACCESS:     607576	FORWARD:         83	MERGED:          0	TO_CACHE:     607576
L2C PQ	ACCESS:    6265816	FORWARD:          0	MERGED:     208181	TO_CACHE:    6057562

L2C Instructions Evicting Data 2760
L2C Translations Evicting Data 2641
L2C Data Evicting Data 1317894
L2C Instructions Evicting Instructions 3
L2C Translations Evicting Instructions 1
L2C Data Evicting Instructions 2774
L2C Instructions Evicting Translations 15
L2C Translations Evicting Translations 0
L2C Data Evicting Translations 2622
L2C Dense regions hint from L2: 0
PSCL5 TOTAL     ACCESS:      17441  HIT:      17441  MISS:          0  HIT %:        100  MISS %:          0   MPKI: 0
PSCL5 LOAD TRANSLATION ACCESS:       3508  HIT:       3508  MISS:          0  HIT %:        100  MISS %:          0   MPKI: 0
PSCL5 TRANSLATION FROM L1D PREFETCHER ACCESS:      13933  HIT:      13933  MISS:          0  HIT %:        100  MISS %:          0   MPKI: 0
PSCL5 PREFETCH  REQUESTED:          0  ISSUED:          0  USEFUL:          0  USELESS:          0
PSCL5 USEFUL LOAD PREFETCHES:          0 PREFETCH ISSUED TO LOWER LEVEL:          0  ACCURACY: -nan
PSCL5 TIMELY PREFETCHES:          0 LATE PREFETCHES: 0 DROPPED PREFETCHES: 0
PSCL5 PREFETCHES SAME FILL-ORIGIN LEVEL: 0 DIFFERENT FILL-ORIGIN LEVEL: 0

PSCL4 TOTAL     ACCESS:      17441  HIT:      17441  MISS:          0  HIT %:        100  MISS %:          0   MPKI: 0
PSCL4 LOAD TRANSLATION ACCESS:       3508  HIT:       3508  MISS:          0  HIT %:        100  MISS %:          0   MPKI: 0
PSCL4 TRANSLATION FROM L1D PREFETCHER ACCESS:      13933  HIT:      13933  MISS:          0  HIT %:        100  MISS %:          0   MPKI: 0
PSCL4 PREFETCH  REQUESTED:          0  ISSUED:          0  USEFUL:          0  USELESS:          0
PSCL4 USEFUL LOAD PREFETCHES:          0 PREFETCH ISSUED TO LOWER LEVEL:          0  ACCURACY: -nan
PSCL4 TIMELY PREFETCHES:          0 LATE PREFETCHES: 0 DROPPED PREFETCHES: 0
PSCL4 PREFETCHES SAME FILL-ORIGIN LEVEL: 0 DIFFERENT FILL-ORIGIN LEVEL: 0

PSCL3 TOTAL     ACCESS:      17441  HIT:      17441  MISS:          0  HIT %:        100  MISS %:          0   MPKI: 0
PSCL3 LOAD TRANSLATION ACCESS:       3508  HIT:       3508  MISS:          0  HIT %:        100  MISS %:          0   MPKI: 0
PSCL3 TRANSLATION FROM L1D PREFETCHER ACCESS:      13933  HIT:      13933  MISS:          0  HIT %:        100  MISS %:          0   MPKI: 0
PSCL3 PREFETCH  REQUESTED:          0  ISSUED:          0  USEFUL:          0  USELESS:          0
PSCL3 USEFUL LOAD PREFETCHES:          0 PREFETCH ISSUED TO LOWER LEVEL:          0  ACCURACY: -nan
PSCL3 TIMELY PREFETCHES:          0 LATE PREFETCHES: 0 DROPPED PREFETCHES: 0
PSCL3 PREFETCHES SAME FILL-ORIGIN LEVEL: 0 DIFFERENT FILL-ORIGIN LEVEL: 0

PSCL2 TOTAL     ACCESS:      17441  HIT:      17326  MISS:        115  HIT %:    99.3406  MISS %:   0.659366   MPKI: 0.0023
PSCL2 LOAD TRANSLATION ACCESS:       3530  HIT:       3415  MISS:        115  HIT %:    96.7422  MISS %:    3.25779   MPKI: 0.0023
PSCL2 TRANSLATION FROM L1D PREFETCHER ACCESS:      13911  HIT:      13911  MISS:          0  HIT %:        100  MISS %:          0   MPKI: 0
PSCL2 PREFETCH  REQUESTED:          0  ISSUED:          0  USEFUL:          0  USELESS:          0
PSCL2 USEFUL LOAD PREFETCHES:          0 PREFETCH ISSUED TO LOWER LEVEL:          0  ACCURACY: -nan
PSCL2 TIMELY PREFETCHES:          0 LATE PREFETCHES: 0 DROPPED PREFETCHES: 0
PSCL2 PREFETCHES SAME FILL-ORIGIN LEVEL: 0 DIFFERENT FILL-ORIGIN LEVEL: 0

LLC TOTAL     ACCESS:    4217068  HIT:    2933442  MISS:    1283626  HIT %:    69.5612  MISS %:    30.4388   MPKI: 25.6725
LLC LOAD      ACCESS:     128422  HIT:      74698  MISS:      53724  HIT %:     58.166  MISS %:     41.834   MPKI: 1.07448
LLC RFO       ACCESS:     107872  HIT:       2734  MISS:     105138  HIT %:    2.53449  MISS %:    97.4655   MPKI: 2.10276
LLC PREFETCH  ACCESS:    3542757  HIT:    2422105  MISS:    1120652  HIT %:    68.3678  MISS %:    31.6322   MPKI: 22.413
AGUS PREFETCH L1 MISS: 0
LLC WRITEBACK ACCESS:     435375  HIT:     433727  MISS:       1648  HIT %:    99.6215  MISS %:   0.378524   MPKI: 0.03296
LLC LOAD TRANSLATION ACCESS:        932  HIT:         46  MISS:        886  HIT %:    4.93562  MISS %:    95.0644   MPKI: 0.01772
LLC TRANSLATION FROM L1D PREFETCHER ACCESS:       1710  HIT:        132  MISS:       1578  HIT %:     7.7193  MISS %:    92.2807   MPKI: 0.03156
LLC PREFETCH  REQUESTED:          0  ISSUED:          0  USEFUL:      72310  USELESS:    1066342
LLC USEFUL LOAD PREFETCHES:      72310 PREFETCH ISSUED TO LOWER LEVEL:    1131852  ACCURACY: 6.38864
LLC TIMELY PREFETCHES:      72310 LATE PREFETCHES: 11200 DROPPED PREFETCHES: 0
LLC PREFETCHES SAME FILL-ORIGIN LEVEL: 914927 DIFFERENT FILL-ORIGIN LEVEL: 0
LLC AVERAGE MISS LATENCY: 316.765 cycles
LLC RQ	ACCESS:     238944	FORWARD:          0	MERGED:          0	TO_CACHE:     238944
LLC WQ	ACCESS:     435383	FORWARD:          3	MERGED:          0	TO_CACHE:     435383
LLC PQ	ACCESS:    4117660	FORWARD:          0	MERGED:      24783	TO_CACHE:    4092874

LLC Dense regions hint to LLC: 0

RAW hits: 50567
Loads Generated: 16765722
Loads sent to L1D: 16715155
Stores Generated: 3489005
Stores sent to L1D: 3489006
Major fault: 0 Minor fault: 7750
Allocated PAGES: 7750
CPU 0 L1D berti prefetcher final stats
0-> Hits: 171144, Late: 1699, Early: 0, Misses: 1395
1-> Hits: 3, Late: 0, Early: 0, Misses: 0
2-> Hits: 6, Late: 2, Early: 0, Misses: 0
3-> Hits: 50870, Late: 2369, Early: 0, Misses: 22
4-> Hits: 35, Late: 0, Early: 0, Misses: 0
5-> Hits: 174, Late: 2, Early: 0, Misses: 0
6-> Hits: 1564, Late: 1, Early: 0, Misses: 0
7-> Hits: 4, Late: 0, Early: 0, Misses: 0
8-> Hits: 159, Late: 9, Early: 0, Misses: 4
9-> Hits: 53412, Late: 0, Early: 0, Misses: 0
a-> Hits: 24010, Late: 5, Early: 0, Misses: 0
b-> Hits: 3157, Late: 1, Early: 0, Misses: 0
c-> Hits: 1538, Late: 1, Early: 0, Misses: 0
d-> Hits: 124, Late: 0, Early: 0, Misses: 0
e-> Hits: 1560, Late: 1, Early: 0, Misses: 0
10-> Hits: 23173, Late: 1620, Early: 0, Misses: 22
11-> Hits: 59, Late: 1, Early: 0, Misses: 0
12-> Hits: 17359, Late: 0, Early: 0, Misses: 0
13-> Hits: 57785, Late: 120, Early: 0, Misses: 119
14-> Hits: 1, Late: 0, Early: 0, Misses: 0
15-> Hits: 0, Late: 1, Early: 0, Misses: 0
16-> Hits: 11, Late: 0, Early: 0, Misses: 0
17-> Hits: 22481, Late: 5, Early: 0, Misses: 0
18-> Hits: 117, Late: 1, Early: 0, Misses: 0
19-> Hits: 1805, Late: 1, Early: 0, Misses: 9
1b-> Hits: 1632, Late: 2, Early: 0, Misses: 0
1c-> Hits: 1562, Late: 0, Early: 0, Misses: 0
1d-> Hits: 94137, Late: 1, Early: 0, Misses: 0
1e-> Hits: 4, Late: 0, Early: 0, Misses: 0
1f-> Hits: 5, Late: 0, Early: 0, Misses: 0
20-> Hits: 349, Late: 2, Early: 0, Misses: 1
21-> Hits: 64, Late: 0, Early: 0, Misses: 0
23-> Hits: 61, Late: 0, Early: 0, Misses: 0
24-> Hits: 3142, Late: 0, Early: 0, Misses: 0
25-> Hits: 110803, Late: 11, Early: 0, Misses: 0
26-> Hits: 121, Late: 0, Early: 0, Misses: 0
27-> Hits: 1564, Late: 0, Early: 0, Misses: 0
28-> Hits: 0, Late: 1, Early: 0, Misses: 0
29-> Hits: 2, Late: 0, Early: 0, Misses: 0
2a-> Hits: 82455, Late: 0, Early: 0, Misses: 0
2b-> Hits: 51, Late: 1, Early: 0, Misses: 48
2c-> Hits: 13, Late: 8, Early: 0, Misses: 0
2d-> Hits: 1, Late: 0, Early: 0, Misses: 0
2e-> Hits: 29, Late: 1, Early: 0, Misses: 0
2f-> Hits: 1332, Late: 675, Early: 0, Misses: 0
30-> Hits: 74, Late: 1, Early: 0, Misses: 0
32-> Hits: 3, Late: 0, Early: 0, Misses: 0
33-> Hits: 3166, Late: 0, Early: 0, Misses: 0
34-> Hits: 7, Late: 0, Early: 0, Misses: 0
35-> Hits: 118, Late: 0, Early: 0, Misses: 0
36-> Hits: 3, Late: 4, Early: 0, Misses: 4
38-> Hits: 89, Late: 0, Early: 0, Misses: 0
39-> Hits: 1, Late: 0, Early: 0, Misses: 0
3b-> Hits: 13, Late: 1, Early: 0, Misses: 22
3e-> Hits: 230, Late: 0, Early: 0, Misses: 0
3f-> Hits: 204, Late: 0, Early: 0, Misses: 0
40-> Hits: 437, Late: 7, Early: 0, Misses: 0
41-> Hits: 2, Late: 0, Early: 0, Misses: 0
43-> Hits: 60, Late: 1, Early: 0, Misses: 22
44-> Hits: 286, Late: 3, Early: 0, Misses: 0
45-> Hits: 1268, Late: 506, Early: 0, Misses: 0
46-> Hits: 19, Late: 0, Early: 0, Misses: 0
47-> Hits: 1, Late: 0, Early: 0, Misses: 0
48-> Hits: 114, Late: 0, Early: 0, Misses: 1
49-> Hits: 0, Late: 1, Early: 0, Misses: 0
4a-> Hits: 35772, Late: 0, Early: 0, Misses: 0
4b-> Hits: 147, Late: 1, Early: 0, Misses: 0
4e-> Hits: 1, Late: 0, Early: 0, Misses: 0
4f-> Hits: 1627, Late: 1, Early: 0, Misses: 0
50-> Hits: 0, Late: 3, Early: 0, Misses: 0
51-> Hits: 129, Late: 0, Early: 0, Misses: 0
52-> Hits: 3264, Late: 3, Early: 0, Misses: 0
53-> Hits: 61496, Late: 0, Early: 0, Misses: 0
54-> Hits: 288, Late: 0, Early: 0, Misses: 0
55-> Hits: 1, Late: 0, Early: 0, Misses: 0
56-> Hits: 1, Late: 0, Early: 0, Misses: 0
57-> Hits: 127, Late: 0, Early: 0, Misses: 0
58-> Hits: 122, Late: 0, Early: 0, Misses: 0
59-> Hits: 3253, Late: 273, Early: 0, Misses: 0
5a-> Hits: 1, Late: 0, Early: 0, Misses: 0
5b-> Hits: 6, Late: 0, Early: 0, Misses: 13
5d-> Hits: 1, Late: 2, Early: 0, Misses: 0
5e-> Hits: 60, Late: 1, Early: 0, Misses: 0
5f-> Hits: 309, Late: 0, Early: 0, Misses: 0
60-> Hits: 3, Late: 1, Early: 0, Misses: 0
61-> Hits: 0, Late: 2, Early: 0, Misses: 0
63-> Hits: 1361, Late: 0, Early: 0, Misses: 0
64-> Hits: 1621, Late: 2, Early: 0, Misses: 0
66-> Hits: 62, Late: 0, Early: 0, Misses: 0
67-> Hits: 1529, Late: 151, Early: 0, Misses: 0
68-> Hits: 60078, Late: 0, Early: 0, Misses: 0
69-> Hits: 1, Late: 0, Early: 0, Misses: 0
6a-> Hits: 1, Late: 0, Early: 0, Misses: 0
6b-> Hits: 279, Late: 0, Early: 0, Misses: 0
6c-> Hits: 61, Late: 0, Early: 0, Misses: 0
6d-> Hits: 100077, Late: 1101, Early: 0, Misses: 0
6e-> Hits: 1, Late: 0, Early: 0, Misses: 0
6f-> Hits: 3, Late: 0, Early: 0, Misses: 0
70-> Hits: 25227, Late: 2559, Early: 0, Misses: 0
71-> Hits: 1476, Late: 477, Early: 0, Misses: 0
72-> Hits: 113880, Late: 0, Early: 0, Misses: 0
73-> Hits: 117, Late: 0, Early: 0, Misses: 0
74-> Hits: 6244, Late: 919, Early: 0, Misses: 0
75-> Hits: 1580, Late: 0, Early: 0, Misses: 0
76-> Hits: 1, Late: 1, Early: 0, Misses: 0
77-> Hits: 231, Late: 0, Early: 0, Misses: 0
78-> Hits: 327, Late: 0, Early: 0, Misses: 1
79-> Hits: 25369, Late: 3825, Early: 0, Misses: 0
7a-> Hits: 96386, Late: 25, Early: 0, Misses: 0
7b-> Hits: 109, Late: 2, Early: 0, Misses: 0
7d-> Hits: 6199, Late: 1219, Early: 0, Misses: 0
7e-> Hits: 851, Late: 0, Early: 0, Misses: 0
7f-> Hits: 1593, Late: 0, Early: 0, Misses: 0
80-> Hits: 152, Late: 0, Early: 0, Misses: 1
81-> Hits: 59, Late: 0, Early: 0, Misses: 0
82-> Hits: 42257, Late: 0, Early: 0, Misses: 1
83-> Hits: 1395, Late: 180, Early: 0, Misses: 0
84-> Hits: 334, Late: 2, Early: 0, Misses: 0
85-> Hits: 6, Late: 0, Early: 0, Misses: 0
86-> Hits: 1503, Late: 2, Early: 0, Misses: 0
87-> Hits: 96744, Late: 0, Early: 0, Misses: 0
88-> Hits: 9, Late: 0, Early: 0, Misses: 0
89-> Hits: 1, Late: 1, Early: 0, Misses: 0
8a-> Hits: 57, Late: 0, Early: 0, Misses: 0
8b-> Hits: 1532, Late: 2, Early: 0, Misses: 0
8c-> Hits: 0, Late: 2, Early: 0, Misses: 0
8d-> Hits: 10, Late: 3, Early: 0, Misses: 2
8f-> Hits: 101518, Late: 1, Early: 0, Misses: 3
90-> Hits: 0, Late: 1, Early: 0, Misses: 0
91-> Hits: 113, Late: 0, Early: 0, Misses: 0
93-> Hits: 2755, Late: 2, Early: 0, Misses: 6
94-> Hits: 1, Late: 0, Early: 0, Misses: 0
95-> Hits: 3, Late: 2, Early: 0, Misses: 0
96-> Hits: 1, Late: 0, Early: 0, Misses: 0
97-> Hits: 293, Late: 0, Early: 0, Misses: 0
98-> Hits: 3135, Late: 0, Early: 0, Misses: 0
99-> Hits: 117, Late: 0, Early: 0, Misses: 0
9b-> Hits: 2, Late: 0, Early: 0, Misses: 0
9c-> Hits: 113882, Late: 2, Early: 0, Misses: 0
9d-> Hits: 1840, Late: 2, Early: 0, Misses: 0
9e-> Hits: 1, Late: 0, Early: 0, Misses: 0
9f-> Hits: 269, Late: 0, Early: 0, Misses: 0
a0-> Hits: 2276, Late: 134, Early: 0, Misses: 0
a1-> Hits: 0, Late: 2, Early: 0, Misses: 0
a3-> Hits: 1380, Late: 0, Early: 0, Misses: 0
a4-> Hits: 2383, Late: 0, Early: 0, Misses: 1
a5-> Hits: 4, Late: 2, Early: 0, Misses: 0
a6-> Hits: 4136, Late: 16, Early: 0, Misses: 0
a7-> Hits: 353, Late: 0, Early: 0, Misses: 0
a8-> Hits: 1, Late: 0, Early: 0, Misses: 1
a9-> Hits: 232, Late: 0, Early: 0, Misses: 0
aa-> Hits: 2, Late: 0, Early: 0, Misses: 0
ab-> Hits: 1621, Late: 0, Early: 0, Misses: 0
ac-> Hits: 114514, Late: 0, Early: 0, Misses: 1
ad-> Hits: 2, Late: 0, Early: 0, Misses: 0
ae-> Hits: 3134, Late: 0, Early: 0, Misses: 0
af-> Hits: 1012, Late: 0, Early: 0, Misses: 0
b0-> Hits: 8475, Late: 253, Early: 0, Misses: 0
b1-> Hits: 1480, Late: 2, Early: 0, Misses: 0
b2-> Hits: 3, Late: 0, Early: 0, Misses: 0
b3-> Hits: 0, Late: 1, Early: 0, Misses: 0
b4-> Hits: 3137, Late: 111, Early: 0, Misses: 0
b5-> Hits: 1631, Late: 1, Early: 0, Misses: 0
b6-> Hits: 991, Late: 11, Early: 0, Misses: 2
b7-> Hits: 629, Late: 0, Early: 0, Misses: 0
b8-> Hits: 437, Late: 0, Early: 0, Misses: 0
b9-> Hits: 93, Late: 0, Early: 0, Misses: 0
bc-> Hits: 406, Late: 0, Early: 0, Misses: 0
bd-> Hits: 3146, Late: 105, Early: 0, Misses: 0
be-> Hits: 116, Late: 0, Early: 0, Misses: 0
bf-> Hits: 311, Late: 0, Early: 0, Misses: 0
c0-> Hits: 0, Late: 1, Early: 0, Misses: 0
c1-> Hits: 1328, Late: 1, Early: 0, Misses: 0
c2-> Hits: 2, Late: 0, Early: 0, Misses: 0
c3-> Hits: 1595, Late: 0, Early: 0, Misses: 0
c4-> Hits: 2406, Late: 51, Early: 0, Misses: 0
c5-> Hits: 1, Late: 0, Early: 0, Misses: 0
c6-> Hits: 119, Late: 0, Early: 0, Misses: 0
c7-> Hits: 221, Late: 0, Early: 0, Misses: 17
c8-> Hits: 6426, Late: 0, Early: 0, Misses: 0
c9-> Hits: 2, Late: 0, Early: 0, Misses: 0
ca-> Hits: 1038, Late: 9, Early: 0, Misses: 0
cb-> Hits: 28, Late: 0, Early: 0, Misses: 0
cc-> Hits: 3, Late: 1, Early: 0, Misses: 0
cd-> Hits: 1561, Late: 0, Early: 0, Misses: 0
ce-> Hits: 0, Late: 2, Early: 0, Misses: 0
cf-> Hits: 1829, Late: 0, Early: 0, Misses: 0
d0-> Hits: 19849, Late: 2750, Early: 0, Misses: 12
d1-> Hits: 536, Late: 2712, Early: 0, Misses: 0
d2-> Hits: 3137, Late: 0, Early: 0, Misses: 0
d3-> Hits: 1622, Late: 29, Early: 0, Misses: 0
d4-> Hits: 3246, Late: 0, Early: 0, Misses: 0
d5-> Hits: 18255, Late: 3877, Early: 0, Misses: 0
d7-> Hits: 118, Late: 0, Early: 0, Misses: 0
d8-> Hits: 8, Late: 0, Early: 0, Misses: 0
da-> Hits: 17935, Late: 20, Early: 0, Misses: 0
dc-> Hits: 211, Late: 0, Early: 0, Misses: 0
dd-> Hits: 3255, Late: 141, Early: 0, Misses: 96
de-> Hits: 3, Late: 0, Early: 0, Misses: 0
df-> Hits: 81, Late: 0, Early: 0, Misses: 0
e0-> Hits: 19455, Late: 612, Early: 0, Misses: 1
e1-> Hits: 57, Late: 3, Early: 0, Misses: 1
e2-> Hits: 7005, Late: 66, Early: 0, Misses: 0
e4-> Hits: 629, Late: 2739, Early: 0, Misses: 0
e5-> Hits: 40651, Late: 289, Early: 0, Misses: 1
e8-> Hits: 371, Late: 2, Early: 0, Misses: 0
e9-> Hits: 4764, Late: 33, Early: 0, Misses: 1
ea-> Hits: 1, Late: 0, Early: 0, Misses: 0
eb-> Hits: 239, Late: 1, Early: 0, Misses: 0
ed-> Hits: 4750, Late: 380, Early: 0, Misses: 0
ee-> Hits: 2, Late: 0, Early: 0, Misses: 0
f0-> Hits: 2944, Late: 290, Early: 0, Misses: 0
f1-> Hits: 0, Late: 3, Early: 0, Misses: 0
f2-> Hits: 0, Late: 2, Early: 0, Misses: 0
f3-> Hits: 116, Late: 0, Early: 0, Misses: 0
f4-> Hits: 13834, Late: 2343, Early: 0, Misses: 0
f5-> Hits: 3282, Late: 1, Early: 0, Misses: 44
f6-> Hits: 82037, Late: 0, Early: 0, Misses: 0
f7-> Hits: 522, Late: 0, Early: 0, Misses: 0
f8-> Hits: 3008, Late: 224, Early: 0, Misses: 0
f9-> Hits: 0, Late: 2, Early: 0, Misses: 0
fa-> Hits: 116, Late: 0, Early: 0, Misses: 0
fb-> Hits: 104551, Late: 1106, Early: 0, Misses: 0
fc-> Hits: 60, Late: 0, Early: 0, Misses: 0
fd-> Hits: 120, Late: 1, Early: 0, Misses: 22
100-> Hits: 79639, Late: 8, Early: 0, Misses: 0
101-> Hits: 3189, Late: 0, Early: 0, Misses: 0
102-> Hits: 556, Late: 2704, Early: 0, Misses: 0
103-> Hits: 3787, Late: 0, Early: 0, Misses: 0
104-> Hits: 2, Late: 0, Early: 0, Misses: 0
105-> Hits: 171, Late: 19, Early: 0, Misses: 39
107-> Hits: 550, Late: 0, Early: 0, Misses: 0
108-> Hits: 9, Late: 0, Early: 0, Misses: 0
109-> Hits: 8, Late: 0, Early: 0, Misses: 0
10a-> Hits: 1620, Late: 0, Early: 0, Misses: 0
10b-> Hits: 176, Late: 0, Early: 0, Misses: 116
10c-> Hits: 8886, Late: 49, Early: 0, Misses: 59
10d-> Hits: 513, Late: 0, Early: 0, Misses: 0
10e-> Hits: 64578, Late: 1, Early: 0, Misses: 0
10f-> Hits: 4139, Late: 147, Early: 0, Misses: 1
110-> Hits: 1489, Late: 5, Early: 0, Misses: 0
112-> Hits: 2, Late: 8, Early: 0, Misses: 0
113-> Hits: 108001, Late: 1148, Early: 0, Misses: 0
114-> Hits: 97, Late: 0, Early: 0, Misses: 19
115-> Hits: 140, Late: 0, Early: 0, Misses: 0
116-> Hits: 1560, Late: 0, Early: 0, Misses: 0
117-> Hits: 4062, Late: 106, Early: 0, Misses: 0
118-> Hits: 13529, Late: 1, Early: 0, Misses: 0
11b-> Hits: 3182, Late: 0, Early: 0, Misses: 0
11c-> Hits: 105, Late: 0, Early: 0, Misses: 11
11d-> Hits: 116, Late: 0, Early: 0, Misses: 0
11e-> Hits: 71206, Late: 0, Early: 0, Misses: 0
11f-> Hits: 11, Late: 2, Early: 0, Misses: 0
120-> Hits: 64, Late: 1, Early: 0, Misses: 0
121-> Hits: 1, Late: 0, Early: 0, Misses: 0
122-> Hits: 5491, Late: 0, Early: 0, Misses: 0
123-> Hits: 878, Late: 0, Early: 0, Misses: 0
125-> Hits: 51, Late: 0, Early: 0, Misses: 0
126-> Hits: 104314, Late: 26, Early: 0, Misses: 0
127-> Hits: 12, Late: 0, Early: 0, Misses: 0
128-> Hits: 4746, Late: 0, Early: 0, Misses: 0
129-> Hits: 1574, Late: 2, Early: 0, Misses: 0
12a-> Hits: 1, Late: 0, Early: 0, Misses: 0
12b-> Hits: 118, Late: 0, Early: 0, Misses: 0
12c-> Hits: 3249, Late: 0, Early: 0, Misses: 1
12d-> Hits: 50, Late: 0, Early: 0, Misses: 3
12e-> Hits: 118, Late: 0, Early: 0, Misses: 0
12f-> Hits: 113886, Late: 0, Early: 0, Misses: 0
130-> Hits: 3631, Late: 0, Early: 0, Misses: 0
132-> Hits: 10, Late: 0, Early: 0, Misses: 0
133-> Hits: 179, Late: 0, Early: 0, Misses: 0
134-> Hits: 116, Late: 1, Early: 0, Misses: 0
135-> Hits: 8, Late: 0, Early: 0, Misses: 0
136-> Hits: 1, Late: 0, Early: 0, Misses: 0
137-> Hits: 126, Late: 0, Early: 0, Misses: 0
138-> Hits: 210, Late: 0, Early: 0, Misses: 0
139-> Hits: 1, Late: 0, Early: 0, Misses: 1
13a-> Hits: 3132, Late: 0, Early: 0, Misses: 0
13b-> Hits: 120, Late: 0, Early: 0, Misses: 0
13c-> Hits: 116, Late: 0, Early: 0, Misses: 0
13d-> Hits: 7, Late: 0, Early: 0, Misses: 0
13e-> Hits: 1, Late: 1, Early: 0, Misses: 0
13f-> Hits: 1, Late: 0, Early: 0, Misses: 0
140-> Hits: 5595, Late: 444, Early: 0, Misses: 1
141-> Hits: 2, Late: 0, Early: 0, Misses: 0
142-> Hits: 17, Late: 0, Early: 0, Misses: 0
143-> Hits: 1915, Late: 0, Early: 0, Misses: 1
144-> Hits: 5, Late: 1, Early: 0, Misses: 0
145-> Hits: 1744, Late: 0, Early: 0, Misses: 0
146-> Hits: 1672, Late: 0, Early: 0, Misses: 0
147-> Hits: 1563, Late: 0, Early: 0, Misses: 0
148-> Hits: 0, Late: 2, Early: 0, Misses: 0
149-> Hits: 3183, Late: 1, Early: 0, Misses: 2
14b-> Hits: 1489, Late: 115, Early: 0, Misses: 0
14c-> Hits: 3177, Late: 0, Early: 0, Misses: 0
14d-> Hits: 277, Late: 0, Early: 0, Misses: 118
14e-> Hits: 1930, Late: 0, Early: 0, Misses: 0
14f-> Hits: 2434, Late: 0, Early: 0, Misses: 0
150-> Hits: 79062, Late: 2, Early: 0, Misses: 0
151-> Hits: 99, Late: 0, Early: 0, Misses: 0
152-> Hits: 1555, Late: 0, Early: 0, Misses: 0
153-> Hits: 1391, Late: 56, Early: 0, Misses: 116
154-> Hits: 95, Late: 0, Early: 0, Misses: 0
155-> Hits: 9, Late: 0, Early: 0, Misses: 118
156-> Hits: 1, Late: 0, Early: 0, Misses: 0
157-> Hits: 83, Late: 0, Early: 0, Misses: 0
158-> Hits: 1599, Late: 0, Early: 0, Misses: 0
159-> Hits: 9, Late: 0, Early: 0, Misses: 0
15b-> Hits: 120, Late: 0, Early: 0, Misses: 0
15c-> Hits: 1596, Late: 0, Early: 0, Misses: 0
15d-> Hits: 5, Late: 0, Early: 0, Misses: 0
15e-> Hits: 113, Late: 0, Early: 0, Misses: 0
15f-> Hits: 0, Late: 3, Early: 0, Misses: 0
160-> Hits: 16364, Late: 1632, Early: 0, Misses: 1
161-> Hits: 1566, Late: 1, Early: 0, Misses: 0
164-> Hits: 5716, Late: 1022, Early: 0, Misses: 0
165-> Hits: 93, Late: 0, Early: 0, Misses: 23
166-> Hits: 3, Late: 0, Early: 0, Misses: 0
167-> Hits: 1594, Late: 0, Early: 0, Misses: 5
168-> Hits: 40, Late: 0, Early: 0, Misses: 0
169-> Hits: 129832, Late: 1672, Early: 0, Misses: 0
16a-> Hits: 7, Late: 0, Early: 0, Misses: 0
16b-> Hits: 818, Late: 0, Early: 0, Misses: 0
16c-> Hits: 2913, Late: 0, Early: 0, Misses: 0
16d-> Hits: 5667, Late: 869, Early: 0, Misses: 0
16e-> Hits: 1590, Late: 0, Early: 0, Misses: 0
170-> Hits: 192236, Late: 20, Early: 0, Misses: 937
171-> Hits: 84, Late: 0, Early: 0, Misses: 0
172-> Hits: 3134, Late: 0, Early: 0, Misses: 0
173-> Hits: 1508, Late: 0, Early: 0, Misses: 0
174-> Hits: 4181, Late: 0, Early: 0, Misses: 4
175-> Hits: 189652, Late: 2373, Early: 0, Misses: 1
178-> Hits: 1, Late: 0, Early: 0, Misses: 0
179-> Hits: 2, Late: 0, Early: 0, Misses: 1
17a-> Hits: 192095, Late: 741, Early: 0, Misses: 94
17b-> Hits: 1, Late: 0, Early: 0, Misses: 0
17c-> Hits: 3211, Late: 0, Early: 0, Misses: 0
17d-> Hits: 1582, Late: 103, Early: 0, Misses: 0
17e-> Hits: 3, Late: 1, Early: 0, Misses: 0
180-> Hits: 6, Late: 3, Early: 0, Misses: 0
181-> Hits: 2, Late: 0, Early: 0, Misses: 0
182-> Hits: 0, Late: 2, Early: 0, Misses: 0
184-> Hits: 162699, Late: 2042, Early: 0, Misses: 20
185-> Hits: 75, Late: 1, Early: 0, Misses: 0
186-> Hits: 61, Late: 0, Early: 0, Misses: 0
18a-> Hits: 1611, Late: 2, Early: 0, Misses: 54
18c-> Hits: 1, Late: 0, Early: 0, Misses: 0
18d-> Hits: 4, Late: 0, Early: 0, Misses: 0
18e-> Hits: 1, Late: 0, Early: 0, Misses: 1
18f-> Hits: 1, Late: 0, Early: 0, Misses: 0
190-> Hits: 48247, Late: 326, Early: 0, Misses: 913
191-> Hits: 3, Late: 0, Early: 0, Misses: 0
192-> Hits: 1675, Late: 3, Early: 0, Misses: 0
193-> Hits: 2900, Late: 0, Early: 0, Misses: 0
195-> Hits: 47418, Late: 0, Early: 0, Misses: 86
196-> Hits: 60, Late: 1, Early: 0, Misses: 0
197-> Hits: 4, Late: 0, Early: 0, Misses: 0
198-> Hits: 3, Late: 2, Early: 0, Misses: 0
199-> Hits: 48034, Late: 0, Early: 0, Misses: 72
19a-> Hits: 1, Late: 0, Early: 0, Misses: 0
19d-> Hits: 1677, Late: 0, Early: 0, Misses: 0
19f-> Hits: 4623, Late: 0, Early: 0, Misses: 0
1a0-> Hits: 2, Late: 5, Early: 0, Misses: 0
1a1-> Hits: 24, Late: 0, Early: 0, Misses: 0
1a2-> Hits: 1, Late: 0, Early: 0, Misses: 0
1a3-> Hits: 1, Late: 0, Early: 0, Misses: 0
1a4-> Hits: 47675, Late: 1162, Early: 0, Misses: 32
1a5-> Hits: 3468, Late: 0, Early: 0, Misses: 0
1a6-> Hits: 0, Late: 0, Early: 0, Misses: 116
1a8-> Hits: 1, Late: 0, Early: 0, Misses: 0
1a9-> Hits: 46762, Late: 607, Early: 0, Misses: 518
1aa-> Hits: 1, Late: 0, Early: 0, Misses: 0
1ab-> Hits: 131, Late: 0, Early: 0, Misses: 0
1ac-> Hits: 10, Late: 0, Early: 0, Misses: 116
1ad-> Hits: 1594, Late: 0, Early: 0, Misses: 0
1af-> Hits: 1, Late: 0, Early: 0, Misses: 0
1b0-> Hits: 60, Late: 1, Early: 0, Misses: 0
1b1-> Hits: 3191, Late: 0, Early: 0, Misses: 0
1b3-> Hits: 47544, Late: 141, Early: 0, Misses: 37
1b4-> Hits: 1, Late: 0, Early: 0, Misses: 0
1b5-> Hits: 61, Late: 2, Early: 0, Misses: 55
1b7-> Hits: 48153, Late: 0, Early: 0, Misses: 0
1b9-> Hits: 1, Late: 0, Early: 0, Misses: 0
1bb-> Hits: 1540, Late: 1, Early: 0, Misses: 20
1bc-> Hits: 1592, Late: 1, Early: 0, Misses: 0
1bd-> Hits: 3299, Late: 0, Early: 0, Misses: 0
1be-> Hits: 2, Late: 0, Early: 0, Misses: 0
1bf-> Hits: 3, Late: 0, Early: 0, Misses: 0
1c0-> Hits: 4, Late: 1, Early: 0, Misses: 0
1c1-> Hits: 50974, Late: 300, Early: 0, Misses: 272
1c2-> Hits: 310, Late: 0, Early: 0, Misses: 0
1c3-> Hits: 11, Late: 0, Early: 0, Misses: 0
1c4-> Hits: 129, Late: 0, Early: 0, Misses: 0
1c5-> Hits: 85, Late: 0, Early: 0, Misses: 0
1c6-> Hits: 47938, Late: 251, Early: 0, Misses: 14
1c7-> Hits: 15, Late: 0, Early: 0, Misses: 0
1c8-> Hits: 2, Late: 2, Early: 0, Misses: 1
1c9-> Hits: 20, Late: 0, Early: 0, Misses: 0
1ca-> Hits: 3326, Late: 0, Early: 0, Misses: 0
1cb-> Hits: 118, Late: 1, Early: 0, Misses: 0
1cc-> Hits: 116, Late: 0, Early: 0, Misses: 0
1cd-> Hits: 124, Late: 0, Early: 0, Misses: 0
1ce-> Hits: 18, Late: 0, Early: 0, Misses: 0
1cf-> Hits: 1, Late: 0, Early: 0, Misses: 0
1d0-> Hits: 18203, Late: 1105, Early: 0, Misses: 1
1d1-> Hits: 109, Late: 0, Early: 0, Misses: 8
1d2-> Hits: 0, Late: 0, Early: 0, Misses: 1
1d3-> Hits: 62, Late: 0, Early: 0, Misses: 0
1d4-> Hits: 6, Late: 0, Early: 0, Misses: 0
1d5-> Hits: 4866, Late: 0, Early: 0, Misses: 0
1d6-> Hits: 1, Late: 0, Early: 0, Misses: 0
1d7-> Hits: 1, Late: 0, Early: 0, Misses: 0
1d8-> Hits: 12200, Late: 602, Early: 0, Misses: 0
1d9-> Hits: 1574, Late: 0, Early: 0, Misses: 19
1da-> Hits: 114, Late: 0, Early: 0, Misses: 2
1db-> Hits: 1560, Late: 0, Early: 0, Misses: 0
1dc-> Hits: 3, Late: 0, Early: 0, Misses: 0
1dd-> Hits: 14, Late: 0, Early: 0, Misses: 0
1de-> Hits: 3076, Late: 0, Early: 0, Misses: 57
1df-> Hits: 1594, Late: 0, Early: 0, Misses: 1
1e0-> Hits: 613, Late: 757, Early: 0, Misses: 0
1e1-> Hits: 1, Late: 1, Early: 0, Misses: 0
1e2-> Hits: 4, Late: 0, Early: 0, Misses: 0
1e3-> Hits: 113, Late: 0, Early: 0, Misses: 0
1e5-> Hits: 1645, Late: 0, Early: 0, Misses: 118
1e6-> Hits: 1, Late: 0, Early: 0, Misses: 0
1e9-> Hits: 2, Late: 1, Early: 0, Misses: 0
1ea-> Hits: 3, Late: 0, Early: 0, Misses: 0
1ec-> Hits: 1535, Late: 0, Early: 0, Misses: 1
1ed-> Hits: 1, Late: 0, Early: 0, Misses: 0
1ee-> Hits: 1035, Late: 283, Early: 0, Misses: 0
1ef-> Hits: 226, Late: 1, Early: 0, Misses: 0
1f0-> Hits: 3298, Late: 3, Early: 0, Misses: 0
1f2-> Hits: 3186, Late: 0, Early: 0, Misses: 0
1f4-> Hits: 65, Late: 0, Early: 0, Misses: 2
1f5-> Hits: 12, Late: 0, Early: 0, Misses: 0
1f6-> Hits: 1564, Late: 0, Early: 0, Misses: 0
1f8-> Hits: 65, Late: 5, Early: 0, Misses: 0
1f9-> Hits: 13, Late: 1, Early: 0, Misses: 0
1fa-> Hits: 3058, Late: 0, Early: 0, Misses: 0
1fb-> Hits: 3, Late: 1, Early: 0, Misses: 4
1fc-> Hits: 2524, Late: 0, Early: 0, Misses: 0
1fd-> Hits: 16, Late: 52, Early: 0, Misses: 61
1fe-> Hits: 2, Late: 0, Early: 0, Misses: 0
1ff-> Hits: 1, Late: 0, Early: 0, Misses: 0
200-> Hits: 198516, Late: 6, Early: 0, Misses: 0
201-> Hits: 11, Late: 3, Early: 0, Misses: 0
202-> Hits: 3189, Late: 0, Early: 0, Misses: 0
203-> Hits: 2, Late: 1, Early: 0, Misses: 0
204-> Hits: 157200, Late: 15683, Early: 0, Misses: 0
205-> Hits: 118, Late: 0, Early: 0, Misses: 0
206-> Hits: 3, Late: 0, Early: 0, Misses: 0
207-> Hits: 3, Late: 0, Early: 0, Misses: 0
208-> Hits: 180865, Late: 0, Early: 0, Misses: 0
209-> Hits: 13, Late: 0, Early: 0, Misses: 2
20a-> Hits: 6, Late: 0, Early: 0, Misses: 0
20b-> Hits: 131, Late: 0, Early: 0, Misses: 0
20c-> Hits: 1392, Late: 0, Early: 0, Misses: 0
20d-> Hits: 12, Late: 0, Early: 0, Misses: 0
20e-> Hits: 1410, Late: 0, Early: 0, Misses: 0
20f-> Hits: 3085, Late: 0, Early: 0, Misses: 57
210-> Hits: 2, Late: 0, Early: 0, Misses: 0
211-> Hits: 2, Late: 0, Early: 0, Misses: 0
212-> Hits: 1, Late: 0, Early: 0, Misses: 0
213-> Hits: 3, Late: 0, Early: 0, Misses: 0
214-> Hits: 1595, Late: 0, Early: 0, Misses: 0
215-> Hits: 80, Late: 0, Early: 0, Misses: 0
216-> Hits: 161, Late: 0, Early: 0, Misses: 0
217-> Hits: 302, Late: 2, Early: 0, Misses: 0
218-> Hits: 11, Late: 0, Early: 0, Misses: 0
21a-> Hits: 116, Late: 0, Early: 0, Misses: 0
21b-> Hits: 130, Late: 0, Early: 0, Misses: 1
21c-> Hits: 1719, Late: 0, Early: 0, Misses: 0
21e-> Hits: 1560, Late: 0, Early: 0, Misses: 0
21f-> Hits: 252, Late: 0, Early: 0, Misses: 0
220-> Hits: 77, Late: 2, Early: 0, Misses: 0
221-> Hits: 1, Late: 0, Early: 0, Misses: 0
222-> Hits: 11, Late: 3, Early: 0, Misses: 0
223-> Hits: 1687, Late: 5, Early: 0, Misses: 0
224-> Hits: 858, Late: 0, Early: 0, Misses: 0
227-> Hits: 2581, Late: 0, Early: 0, Misses: 0
228-> Hits: 136, Late: 3, Early: 0, Misses: 0
229-> Hits: 62, Late: 0, Early: 0, Misses: 0
22a-> Hits: 10, Late: 0, Early: 0, Misses: 0
22b-> Hits: 1555, Late: 0, Early: 0, Misses: 7
22c-> Hits: 487, Late: 0, Early: 0, Misses: 0
22d-> Hits: 1, Late: 0, Early: 0, Misses: 0
22f-> Hits: 2725, Late: 0, Early: 0, Misses: 0
230-> Hits: 461, Late: 6, Early: 0, Misses: 2
232-> Hits: 22, Late: 0, Early: 0, Misses: 0
234-> Hits: 1536, Late: 0, Early: 0, Misses: 0
235-> Hits: 57, Late: 0, Early: 0, Misses: 0
237-> Hits: 134, Late: 0, Early: 0, Misses: 0
238-> Hits: 85, Late: 0, Early: 0, Misses: 0
239-> Hits: 43, Late: 0, Early: 0, Misses: 0
23a-> Hits: 152, Late: 0, Early: 0, Misses: 0
23b-> Hits: 116, Late: 0, Early: 0, Misses: 0
23c-> Hits: 1584, Late: 0, Early: 0, Misses: 0
23e-> Hits: 2666, Late: 0, Early: 0, Misses: 0
23f-> Hits: 451, Late: 4, Early: 0, Misses: 0
240-> Hits: 120, Late: 0, Early: 0, Misses: 0
241-> Hits: 105, Late: 0, Early: 0, Misses: 77
242-> Hits: 60, Late: 1, Early: 0, Misses: 0
243-> Hits: 3302, Late: 0, Early: 0, Misses: 0
244-> Hits: 3, Late: 0, Early: 0, Misses: 0
245-> Hits: 304, Late: 29, Early: 0, Misses: 0
247-> Hits: 2, Late: 0, Early: 0, Misses: 1
248-> Hits: 1, Late: 0, Early: 0, Misses: 0
249-> Hits: 19, Late: 2, Early: 0, Misses: 99
24a-> Hits: 2, Late: 1, Early: 0, Misses: 0
24b-> Hits: 2, Late: 0, Early: 0, Misses: 0
24c-> Hits: 1619, Late: 0, Early: 0, Misses: 0
24d-> Hits: 112, Late: 0, Early: 0, Misses: 0
24f-> Hits: 301, Late: 0, Early: 0, Misses: 0
250-> Hits: 87999, Late: 362, Early: 0, Misses: 0
251-> Hits: 39, Late: 2, Early: 0, Misses: 0
252-> Hits: 62, Late: 2, Early: 0, Misses: 0
253-> Hits: 1570, Late: 0, Early: 0, Misses: 0
255-> Hits: 80332, Late: 0, Early: 0, Misses: 0
256-> Hits: 8, Late: 0, Early: 0, Misses: 0
257-> Hits: 496, Late: 1, Early: 0, Misses: 0
258-> Hits: 4, Late: 0, Early: 0, Misses: 0
259-> Hits: 61, Late: 0, Early: 0, Misses: 0
25a-> Hits: 1, Late: 1, Early: 0, Misses: 0
25b-> Hits: 14, Late: 45, Early: 0, Misses: 0
25c-> Hits: 118, Late: 0, Early: 0, Misses: 0
25e-> Hits: 15, Late: 1, Early: 0, Misses: 0
25f-> Hits: 142433, Late: 409, Early: 0, Misses: 246
260-> Hits: 313, Late: 4, Early: 0, Misses: 0
261-> Hits: 13, Late: 0, Early: 0, Misses: 0
262-> Hits: 1006, Late: 0, Early: 0, Misses: 0
263-> Hits: 54748, Late: 0, Early: 0, Misses: 0
264-> Hits: 190, Late: 43, Early: 0, Misses: 0
265-> Hits: 189, Late: 0, Early: 0, Misses: 0
266-> Hits: 13, Late: 3, Early: 0, Misses: 114
267-> Hits: 7, Late: 2, Early: 0, Misses: 0
268-> Hits: 2, Late: 0, Early: 0, Misses: 0
269-> Hits: 71, Late: 2, Early: 0, Misses: 0
26a-> Hits: 271, Late: 116, Early: 0, Misses: 0
26b-> Hits: 2, Late: 0, Early: 0, Misses: 0
26c-> Hits: 1632, Late: 0, Early: 0, Misses: 0
26d-> Hits: 85392, Late: 155, Early: 0, Misses: 0
26e-> Hits: 3187, Late: 0, Early: 0, Misses: 0
26f-> Hits: 0, Late: 2, Early: 0, Misses: 114
270-> Hits: 2, Late: 2, Early: 0, Misses: 0
271-> Hits: 53471, Late: 163, Early: 0, Misses: 0
272-> Hits: 273, Late: 46, Early: 0, Misses: 0
273-> Hits: 1360, Late: 1, Early: 0, Misses: 0
274-> Hits: 22, Late: 1, Early: 0, Misses: 0
275-> Hits: 2, Late: 0, Early: 0, Misses: 0
277-> Hits: 4, Late: 0, Early: 0, Misses: 1
278-> Hits: 569, Late: 3, Early: 0, Misses: 0
27a-> Hits: 2339, Late: 2, Early: 0, Misses: 0
27b-> Hits: 1353, Late: 1, Early: 0, Misses: 0
27c-> Hits: 6, Late: 0, Early: 0, Misses: 0
27d-> Hits: 3, Late: 1, Early: 0, Misses: 0
27e-> Hits: 3, Late: 0, Early: 0, Misses: 0
27f-> Hits: 1, Late: 0, Early: 0, Misses: 0
280-> Hits: 343, Late: 2, Early: 0, Misses: 0
281-> Hits: 1, Late: 0, Early: 0, Misses: 0
282-> Hits: 3, Late: 0, Early: 0, Misses: 0
284-> Hits: 25, Late: 0, Early: 0, Misses: 0
285-> Hits: 235, Late: 0, Early: 0, Misses: 0
286-> Hits: 51666, Late: 463, Early: 0, Misses: 0
287-> Hits: 9, Late: 0, Early: 0, Misses: 1
288-> Hits: 4, Late: 2, Early: 0, Misses: 0
289-> Hits: 116, Late: 0, Early: 0, Misses: 0
28a-> Hits: 2, Late: 2, Early: 0, Misses: 0
28b-> Hits: 84479, Late: 93, Early: 0, Misses: 0
28c-> Hits: 2, Late: 1, Early: 0, Misses: 0
28d-> Hits: 1, Late: 0, Early: 0, Misses: 0
28e-> Hits: 1, Late: 1, Early: 0, Misses: 0
290-> Hits: 38043, Late: 6144, Early: 0, Misses: 3
291-> Hits: 77134, Late: 0, Early: 0, Misses: 0
292-> Hits: 2433, Late: 0, Early: 0, Misses: 0
293-> Hits: 1083, Late: 566, Early: 0, Misses: 52
294-> Hits: 36113, Late: 5984, Early: 0, Misses: 0
295-> Hits: 60, Late: 0, Early: 0, Misses: 0
296-> Hits: 11, Late: 0, Early: 0, Misses: 0
297-> Hits: 0, Late: 0, Early: 0, Misses: 1
298-> Hits: 12, Late: 1, Early: 0, Misses: 0
29a-> Hits: 8, Late: 0, Early: 0, Misses: 0
29b-> Hits: 117, Late: 0, Early: 0, Misses: 0
29c-> Hits: 1, Late: 0, Early: 0, Misses: 0
29d-> Hits: 1050, Late: 644, Early: 0, Misses: 2
29e-> Hits: 3490, Late: 26, Early: 0, Misses: 0
29f-> Hits: 37039, Late: 6030, Early: 0, Misses: 0
2a0-> Hits: 2, Late: 0, Early: 0, Misses: 1
2a1-> Hits: 3, Late: 0, Early: 0, Misses: 1
2a2-> Hits: 117, Late: 0, Early: 0, Misses: 0
2a3-> Hits: 35563, Late: 7179, Early: 0, Misses: 0
2a4-> Hits: 341, Late: 0, Early: 0, Misses: 0
2a5-> Hits: 0, Late: 2, Early: 0, Misses: 0
2a7-> Hits: 3186, Late: 0, Early: 0, Misses: 1
2a8-> Hits: 1, Late: 2, Early: 0, Misses: 0
2a9-> Hits: 17910, Late: 7, Early: 0, Misses: 0
2ab-> Hits: 5, Late: 3, Early: 0, Misses: 0
2ac-> Hits: 0, Late: 1, Early: 0, Misses: 0
2ad-> Hits: 1, Late: 0, Early: 0, Misses: 0
2af-> Hits: 35802, Late: 6569, Early: 0, Misses: 0
2b0-> Hits: 46, Late: 0, Early: 0, Misses: 0
2b1-> Hits: 4, Late: 0, Early: 0, Misses: 0
2b2-> Hits: 1, Late: 0, Early: 0, Misses: 0
2b3-> Hits: 103, Late: 0, Early: 0, Misses: 0
2b4-> Hits: 2, Late: 0, Early: 0, Misses: 0
2b5-> Hits: 33065, Late: 7847, Early: 0, Misses: 0
2b6-> Hits: 1, Late: 0, Early: 0, Misses: 0
2b7-> Hits: 117, Late: 1, Early: 0, Misses: 0
2b8-> Hits: 6, Late: 0, Early: 0, Misses: 1
2b9-> Hits: 4, Late: 0, Early: 0, Misses: 0
2ba-> Hits: 3, Late: 0, Early: 0, Misses: 0
2bb-> Hits: 51982, Late: 579, Early: 0, Misses: 0
2bd-> Hits: 347, Late: 0, Early: 0, Misses: 0
2be-> Hits: 5, Late: 0, Early: 0, Misses: 0
2bf-> Hits: 1, Late: 1, Early: 0, Misses: 0
2c0-> Hits: 4, Late: 5, Early: 0, Misses: 0
2c2-> Hits: 2, Late: 1, Early: 0, Misses: 0
2c5-> Hits: 2, Late: 0, Early: 0, Misses: 0
2c6-> Hits: 2, Late: 0, Early: 0, Misses: 0
2c7-> Hits: 1561, Late: 0, Early: 0, Misses: 1
2c9-> Hits: 2, Late: 2, Early: 0, Misses: 0
2ca-> Hits: 18156, Late: 65, Early: 0, Misses: 0
2cb-> Hits: 116, Late: 0, Early: 0, Misses: 0
2cd-> Hits: 118, Late: 0, Early: 0, Misses: 0
2ce-> Hits: 2, Late: 0, Early: 0, Misses: 0
2d0-> Hits: 5, Late: 0, Early: 0, Misses: 0
2d4-> Hits: 1, Late: 0, Early: 0, Misses: 0
2d5-> Hits: 148, Late: 0, Early: 0, Misses: 0
2d6-> Hits: 47196, Late: 873, Early: 0, Misses: 0
2d7-> Hits: 2376, Late: 0, Early: 0, Misses: 0
2d8-> Hits: 342, Late: 2, Early: 0, Misses: 0
2d9-> Hits: 5, Late: 0, Early: 0, Misses: 0
2da-> Hits: 166, Late: 0, Early: 0, Misses: 0
2db-> Hits: 15598, Late: 109, Early: 0, Misses: 0
2df-> Hits: 3003, Late: 0, Early: 0, Misses: 0
2e0-> Hits: 3, Late: 1, Early: 0, Misses: 0
2e1-> Hits: 52, Late: 9, Early: 0, Misses: 1
2e2-> Hits: 119, Late: 2, Early: 0, Misses: 0
2e3-> Hits: 50126, Late: 940, Early: 0, Misses: 0
2e6-> Hits: 60, Late: 0, Early: 0, Misses: 0
2e7-> Hits: 14043, Late: 109, Early: 0, Misses: 0
2e8-> Hits: 326, Late: 4, Early: 0, Misses: 0
2e9-> Hits: 3, Late: 0, Early: 0, Misses: 0
2ea-> Hits: 12, Late: 0, Early: 0, Misses: 0
2ed-> Hits: 2, Late: 0, Early: 0, Misses: 0
2ee-> Hits: 32, Late: 0, Early: 0, Misses: 30
2ef-> Hits: 1, Late: 0, Early: 0, Misses: 0
2f0-> Hits: 8023, Late: 1, Early: 0, Misses: 1
2f1-> Hits: 2, Late: 0, Early: 0, Misses: 0
2f2-> Hits: 2, Late: 0, Early: 0, Misses: 0
2f3-> Hits: 342, Late: 0, Early: 0, Misses: 0
2f4-> Hits: 49325, Late: 1041, Early: 0, Misses: 0
2f5-> Hits: 3240, Late: 0, Early: 0, Misses: 0
2f6-> Hits: 8097, Late: 1, Early: 0, Misses: 1
2f8-> Hits: 25, Late: 1, Early: 0, Misses: 0
2f9-> Hits: 8983, Late: 176, Early: 0, Misses: 0
2fa-> Hits: 179, Late: 0, Early: 0, Misses: 0
2fb-> Hits: 2, Late: 2, Early: 0, Misses: 0
2fd-> Hits: 49, Late: 0, Early: 0, Misses: 0
2fe-> Hits: 10, Late: 0, Early: 0, Misses: 0
2ff-> Hits: 224, Late: 124, Early: 0, Misses: 0
300-> Hits: 1215, Late: 160, Early: 0, Misses: 0
301-> Hits: 57333, Late: 1320, Early: 0, Misses: 0
302-> Hits: 6, Late: 0, Early: 0, Misses: 0
303-> Hits: 137, Late: 2, Early: 0, Misses: 0
304-> Hits: 314, Late: 56, Early: 0, Misses: 0
306-> Hits: 15117, Late: 208, Early: 0, Misses: 58
307-> Hits: 1221, Late: 145, Early: 0, Misses: 0
308-> Hits: 6147, Late: 0, Early: 0, Misses: 0
30a-> Hits: 2, Late: 0, Early: 0, Misses: 0
30b-> Hits: 326, Late: 48, Early: 0, Misses: 0
30c-> Hits: 112, Late: 0, Early: 0, Misses: 0
30d-> Hits: 1, Late: 0, Early: 0, Misses: 0
30e-> Hits: 361, Late: 4, Early: 0, Misses: 0
30f-> Hits: 10863, Late: 38, Early: 0, Misses: 9
310-> Hits: 4226, Late: 8, Early: 0, Misses: 0
313-> Hits: 0, Late: 0, Early: 0, Misses: 1
314-> Hits: 7735, Late: 0, Early: 0, Misses: 1
315-> Hits: 189, Late: 35, Early: 0, Misses: 3
316-> Hits: 60, Late: 0, Early: 0, Misses: 0
317-> Hits: 1, Late: 0, Early: 0, Misses: 0
318-> Hits: 2546, Late: 0, Early: 0, Misses: 0
319-> Hits: 1, Late: 0, Early: 0, Misses: 0
31a-> Hits: 1, Late: 0, Early: 0, Misses: 0
31c-> Hits: 19, Late: 0, Early: 0, Misses: 0
31e-> Hits: 204, Late: 9, Early: 0, Misses: 0
31f-> Hits: 7884, Late: 13, Early: 0, Misses: 10
320-> Hits: 4081, Late: 20023, Early: 0, Misses: 0
321-> Hits: 0, Late: 0, Early: 0, Misses: 1
322-> Hits: 297, Late: 0, Early: 0, Misses: 0
323-> Hits: 45, Late: 1, Early: 0, Misses: 1
324-> Hits: 3178, Late: 0, Early: 0, Misses: 0
325-> Hits: 7929, Late: 1, Early: 0, Misses: 0
329-> Hits: 306, Late: 0, Early: 0, Misses: 0
32a-> Hits: 277, Late: 753, Early: 0, Misses: 0
32b-> Hits: 3031, Late: 114, Early: 0, Misses: 0
32c-> Hits: 12, Late: 1, Early: 0, Misses: 0
32e-> Hits: 1, Late: 0, Early: 0, Misses: 0
330-> Hits: 3589, Late: 2, Early: 0, Misses: 0
331-> Hits: 37, Late: 0, Early: 0, Misses: 0
332-> Hits: 118, Late: 0, Early: 0, Misses: 0
333-> Hits: 20296, Late: 0, Early: 0, Misses: 0
334-> Hits: 3441, Late: 7151, Early: 0, Misses: 0
335-> Hits: 30, Late: 4, Early: 0, Misses: 0
336-> Hits: 2, Late: 0, Early: 0, Misses: 0
338-> Hits: 11838, Late: 14, Early: 0, Misses: 358
339-> Hits: 1009, Late: 1, Early: 0, Misses: 0
33a-> Hits: 0, Late: 0, Early: 0, Misses: 1
33b-> Hits: 3132, Late: 0, Early: 0, Misses: 0
33c-> Hits: 3241, Late: 1, Early: 0, Misses: 0
33d-> Hits: 166, Late: 0, Early: 0, Misses: 0
33e-> Hits: 1, Late: 2, Early: 0, Misses: 0
340-> Hits: 27, Late: 1, Early: 0, Misses: 0
341-> Hits: 143, Late: 0, Early: 0, Misses: 0
343-> Hits: 566, Late: 0, Early: 0, Misses: 0
344-> Hits: 83711, Late: 0, Early: 0, Misses: 0
345-> Hits: 3132, Late: 0, Early: 0, Misses: 0
348-> Hits: 6, Late: 1, Early: 0, Misses: 1
349-> Hits: 3073, Late: 0, Early: 0, Misses: 0
34a-> Hits: 1, Late: 0, Early: 0, Misses: 0
34b-> Hits: 645, Late: 0, Early: 0, Misses: 0
34c-> Hits: 1, Late: 0, Early: 0, Misses: 0
34d-> Hits: 841, Late: 0, Early: 0, Misses: 0
34e-> Hits: 1, Late: 0, Early: 0, Misses: 0
34f-> Hits: 6148, Late: 116, Early: 0, Misses: 0
350-> Hits: 6399, Late: 429, Early: 0, Misses: 1
351-> Hits: 1375, Late: 0, Early: 0, Misses: 0
352-> Hits: 2, Late: 0, Early: 0, Misses: 1
353-> Hits: 0, Late: 1, Early: 0, Misses: 0
355-> Hits: 2894, Late: 323, Early: 0, Misses: 0
356-> Hits: 28, Late: 1, Early: 0, Misses: 13
357-> Hits: 3109, Late: 2, Early: 0, Misses: 21
358-> Hits: 1481, Late: 18, Early: 0, Misses: 0
359-> Hits: 2534, Late: 0, Early: 0, Misses: 0
35a-> Hits: 1, Late: 0, Early: 0, Misses: 0
35b-> Hits: 1, Late: 13, Early: 0, Misses: 0
35c-> Hits: 75, Late: 0, Early: 0, Misses: 0
35d-> Hits: 6, Late: 0, Early: 0, Misses: 0
35e-> Hits: 3205, Late: 0, Early: 0, Misses: 0
35f-> Hits: 7, Late: 6, Early: 0, Misses: 0
360-> Hits: 2820, Late: 409, Early: 0, Misses: 0
361-> Hits: 648, Late: 1, Early: 0, Misses: 0
363-> Hits: 38, Late: 0, Early: 0, Misses: 0
364-> Hits: 30, Late: 0, Early: 0, Misses: 0
365-> Hits: 3016, Late: 359, Early: 0, Misses: 0
366-> Hits: 680, Late: 0, Early: 0, Misses: 0
367-> Hits: 0, Late: 1, Early: 0, Misses: 0
368-> Hits: 3159, Late: 15, Early: 0, Misses: 0
369-> Hits: 3213, Late: 13, Early: 0, Misses: 0
36a-> Hits: 0, Late: 1, Early: 0, Misses: 0
36b-> Hits: 0, Late: 2, Early: 0, Misses: 0
36c-> Hits: 54, Late: 0, Early: 0, Misses: 0
36d-> Hits: 123, Late: 0, Early: 0, Misses: 0
36e-> Hits: 2, Late: 0, Early: 0, Misses: 0
370-> Hits: 2777, Late: 469, Early: 0, Misses: 0
371-> Hits: 6070, Late: 4, Early: 0, Misses: 113
372-> Hits: 3860, Late: 0, Early: 0, Misses: 0
373-> Hits: 0, Late: 1, Early: 0, Misses: 0
374-> Hits: 234, Late: 0, Early: 0, Misses: 0
375-> Hits: 2759, Late: 502, Early: 0, Misses: 13
377-> Hits: 3132, Late: 0, Early: 0, Misses: 0
378-> Hits: 240, Late: 0, Early: 0, Misses: 1
37a-> Hits: 2, Late: 0, Early: 0, Misses: 0
37c-> Hits: 117, Late: 0, Early: 0, Misses: 0
37d-> Hits: 2, Late: 13, Early: 0, Misses: 0
37e-> Hits: 3155, Late: 0, Early: 0, Misses: 0
37f-> Hits: 118, Late: 0, Early: 0, Misses: 0
380-> Hits: 14094, Late: 477, Early: 0, Misses: 3
381-> Hits: 0, Late: 1, Early: 0, Misses: 0
382-> Hits: 579, Late: 0, Early: 0, Misses: 58
383-> Hits: 2, Late: 0, Early: 0, Misses: 0
384-> Hits: 5, Late: 0, Early: 0, Misses: 13
385-> Hits: 3199, Late: 395, Early: 0, Misses: 0
387-> Hits: 3258, Late: 0, Early: 0, Misses: 0
388-> Hits: 156, Late: 2, Early: 0, Misses: 0
38a-> Hits: 3138, Late: 0, Early: 0, Misses: 0
38b-> Hits: 14382, Late: 219, Early: 0, Misses: 0
38c-> Hits: 37, Late: 16, Early: 0, Misses: 0
38d-> Hits: 76, Late: 0, Early: 0, Misses: 0
38e-> Hits: 93, Late: 0, Early: 0, Misses: 60
38f-> Hits: 13, Late: 0, Early: 0, Misses: 0
390-> Hits: 3316, Late: 1306, Early: 0, Misses: 0
391-> Hits: 3358, Late: 220, Early: 0, Misses: 1
392-> Hits: 1, Late: 0, Early: 0, Misses: 0
393-> Hits: 60, Late: 0, Early: 0, Misses: 59
394-> Hits: 55, Late: 13, Early: 0, Misses: 0
395-> Hits: 6342, Late: 0, Early: 0, Misses: 0
396-> Hits: 9, Late: 0, Early: 0, Misses: 0
397-> Hits: 14, Late: 0, Early: 0, Misses: 4
399-> Hits: 4260, Late: 59, Early: 0, Misses: 0
39a-> Hits: 27, Late: 0, Early: 0, Misses: 0
39b-> Hits: 126, Late: 1, Early: 0, Misses: 2
39c-> Hits: 6, Late: 1, Early: 0, Misses: 0
39d-> Hits: 10, Late: 0, Early: 0, Misses: 0
39e-> Hits: 154, Late: 1473, Early: 0, Misses: 0
39f-> Hits: 9, Late: 13, Early: 0, Misses: 0
3a0-> Hits: 3157, Late: 1, Early: 0, Misses: 0
3a1-> Hits: 1, Late: 1, Early: 0, Misses: 0
3a2-> Hits: 12, Late: 0, Early: 0, Misses: 0
3a3-> Hits: 15258, Late: 573, Early: 0, Misses: 0
3a4-> Hits: 42, Late: 0, Early: 0, Misses: 0
3a5-> Hits: 0, Late: 1, Early: 0, Misses: 0
3a6-> Hits: 159, Late: 0, Early: 0, Misses: 6
3a7-> Hits: 1, Late: 0, Early: 0, Misses: 0
3a8-> Hits: 3180, Late: 400, Early: 0, Misses: 0
3a9-> Hits: 3466, Late: 7, Early: 0, Misses: 24
3aa-> Hits: 1, Late: 0, Early: 0, Misses: 0
3ab-> Hits: 10, Late: 0, Early: 0, Misses: 118
3ac-> Hits: 3137, Late: 0, Early: 0, Misses: 1
3ae-> Hits: 15, Late: 0, Early: 0, Misses: 45
3af-> Hits: 9, Late: 0, Early: 0, Misses: 0
3b0-> Hits: 55, Late: 4, Early: 0, Misses: 0
3b1-> Hits: 357, Late: 12, Early: 0, Misses: 1
3b2-> Hits: 2, Late: 0, Early: 0, Misses: 0
3b3-> Hits: 66, Late: 0, Early: 0, Misses: 59
3b4-> Hits: 3250, Late: 83, Early: 0, Misses: 34
3b5-> Hits: 0, Late: 1, Early: 0, Misses: 0
3b6-> Hits: 2864, Late: 0, Early: 0, Misses: 0
3b7-> Hits: 3025, Late: 0, Early: 0, Misses: 114
3b8-> Hits: 63, Late: 0, Early: 0, Misses: 0
3b9-> Hits: 89, Late: 0, Early: 0, Misses: 37
3ba-> Hits: 1, Late: 0, Early: 0, Misses: 0
3bc-> Hits: 81, Late: 0, Early: 0, Misses: 36
3bd-> Hits: 1, Late: 0, Early: 0, Misses: 0
3be-> Hits: 3890, Late: 76, Early: 0, Misses: 0
3bf-> Hits: 0, Late: 14, Early: 0, Misses: 0
3c0-> Hits: 256, Late: 0, Early: 0, Misses: 0
3c1-> Hits: 136, Late: 0, Early: 0, Misses: 0
3c2-> Hits: 1, Late: 0, Early: 0, Misses: 0
3c3-> Hits: 17, Late: 0, Early: 0, Misses: 0
3c5-> Hits: 211, Late: 0, Early: 0, Misses: 58
3c6-> Hits: 35, Late: 37, Early: 0, Misses: 0
3c7-> Hits: 605, Late: 0, Early: 0, Misses: 0
3c8-> Hits: 3053, Late: 0, Early: 0, Misses: 0
3c9-> Hits: 66, Late: 0, Early: 0, Misses: 0
3ca-> Hits: 95, Late: 1, Early: 0, Misses: 22
3cc-> Hits: 485, Late: 0, Early: 0, Misses: 0
3cd-> Hits: 550, Late: 1, Early: 0, Misses: 58
3ce-> Hits: 60, Late: 0, Early: 0, Misses: 0
3cf-> Hits: 1634, Late: 58, Early: 0, Misses: 0
3d0-> Hits: 7, Late: 1, Early: 0, Misses: 0
3d1-> Hits: 13, Late: 0, Early: 0, Misses: 0
3d2-> Hits: 0, Late: 1, Early: 0, Misses: 115
3d3-> Hits: 589, Late: 2659, Early: 0, Misses: 0
3d4-> Hits: 476, Late: 1, Early: 0, Misses: 0
3d5-> Hits: 186, Late: 0, Early: 0, Misses: 1
3d6-> Hits: 311, Late: 0, Early: 0, Misses: 0
3d7-> Hits: 533, Late: 1, Early: 0, Misses: 58
3d8-> Hits: 78, Late: 0, Early: 0, Misses: 2
3d9-> Hits: 15, Late: 0, Early: 0, Misses: 0
3da-> Hits: 12, Late: 0, Early: 0, Misses: 2
3dc-> Hits: 530, Late: 0, Early: 0, Misses: 0
3dd-> Hits: 151, Late: 0, Early: 0, Misses: 0
3de-> Hits: 178, Late: 0, Early: 0, Misses: 0
3e0-> Hits: 0, Late: 3, Early: 0, Misses: 1
3e1-> Hits: 831, Late: 0, Early: 0, Misses: 0
3e2-> Hits: 42, Late: 0, Early: 0, Misses: 0
3e3-> Hits: 1, Late: 0, Early: 0, Misses: 0
3e4-> Hits: 607, Late: 2706, Early: 0, Misses: 0
3e5-> Hits: 284, Late: 0, Early: 0, Misses: 0
3e6-> Hits: 1857, Late: 1, Early: 0, Misses: 0
3e9-> Hits: 2, Late: 0, Early: 0, Misses: 0
3eb-> Hits: 10, Late: 0, Early: 0, Misses: 0
3ec-> Hits: 6056, Late: 0, Early: 0, Misses: 0
3ed-> Hits: 85, Late: 0, Early: 0, Misses: 0
3ee-> Hits: 129, Late: 1, Early: 0, Misses: 0
3f0-> Hits: 629, Late: 0, Early: 0, Misses: 0
3f1-> Hits: 3186, Late: 0, Early: 0, Misses: 0
3f2-> Hits: 2, Late: 0, Early: 0, Misses: 0
3f3-> Hits: 1608, Late: 0, Early: 0, Misses: 0
3f4-> Hits: 2543, Late: 0, Early: 0, Misses: 0
3f5-> Hits: 179, Late: 13, Early: 0, Misses: 0
3f6-> Hits: 1, Late: 0, Early: 0, Misses: 0
3f7-> Hits: 2, Late: 0, Early: 0, Misses: 0
3f8-> Hits: 554, Late: 2, Early: 0, Misses: 44
3f9-> Hits: 3188, Late: 0, Early: 0, Misses: 118
3fa-> Hits: 1, Late: 0, Early: 0, Misses: 0
3fb-> Hits: 6, Late: 0, Early: 0, Misses: 0
3fc-> Hits: 3191, Late: 0, Early: 0, Misses: 0
3fd-> Hits: 1, Late: 0, Early: 0, Misses: 0
3fe-> Hits: 249, Late: 0, Early: 0, Misses: 0
3ff-> Hits: 2, Late: 0, Early: 0, Misses: 0
400-> Hits: 17027, Late: 926, Early: 0, Misses: 6
401-> Hits: 621, Late: 2682, Early: 0, Misses: 0
402-> Hits: 88, Late: 0, Early: 0, Misses: 2
403-> Hits: 5, Late: 0, Early: 0, Misses: 0
404-> Hits: 3137, Late: 0, Early: 0, Misses: 6
406-> Hits: 532, Late: 3, Early: 0, Misses: 66
407-> Hits: 120, Late: 0, Early: 0, Misses: 0
408-> Hits: 3, Late: 1, Early: 0, Misses: 0
40a-> Hits: 14597, Late: 8, Early: 0, Misses: 0
40b-> Hits: 1, Late: 0, Early: 0, Misses: 0
40c-> Hits: 3791, Late: 0, Early: 0, Misses: 2
40e-> Hits: 6, Late: 0, Early: 0, Misses: 0
40f-> Hits: 3144, Late: 104, Early: 0, Misses: 3
410-> Hits: 14980, Late: 1073, Early: 0, Misses: 0
411-> Hits: 1, Late: 0, Early: 0, Misses: 0
412-> Hits: 13, Late: 0, Early: 0, Misses: 0
413-> Hits: 1620, Late: 0, Early: 0, Misses: 0
414-> Hits: 2248, Late: 0, Early: 0, Misses: 0
416-> Hits: 1616, Late: 59, Early: 0, Misses: 0
417-> Hits: 14401, Late: 8, Early: 0, Misses: 0
418-> Hits: 3183, Late: 1, Early: 0, Misses: 0
419-> Hits: 53, Late: 0, Early: 0, Misses: 0
41a-> Hits: 1619, Late: 0, Early: 0, Misses: 0
41b-> Hits: 1, Late: 0, Early: 0, Misses: 0
41c-> Hits: 20, Late: 0, Early: 0, Misses: 0
41e-> Hits: 7, Late: 0, Early: 0, Misses: 0
41f-> Hits: 1540, Late: 171, Early: 0, Misses: 31
420-> Hits: 35640, Late: 479, Early: 0, Misses: 633
422-> Hits: 14023, Late: 16, Early: 0, Misses: 0
423-> Hits: 33007, Late: 2558, Early: 0, Misses: 0
424-> Hits: 162, Late: 1, Early: 0, Misses: 0
425-> Hits: 35, Late: 0, Early: 0, Misses: 0
426-> Hits: 3019, Late: 0, Early: 0, Misses: 0
427-> Hits: 58, Late: 0, Early: 0, Misses: 0
428-> Hits: 3027, Late: 0, Early: 0, Misses: 0
429-> Hits: 35156, Late: 38, Early: 0, Misses: 31
42a-> Hits: 119, Late: 0, Early: 0, Misses: 0
42b-> Hits: 3, Late: 0, Early: 0, Misses: 0
42c-> Hits: 577, Late: 0, Early: 0, Misses: 0
42d-> Hits: 1, Late: 0, Early: 0, Misses: 0
42e-> Hits: 3043, Late: 0, Early: 0, Misses: 0
42f-> Hits: 3147, Late: 0, Early: 0, Misses: 0
430-> Hits: 65374, Late: 588, Early: 0, Misses: 0
433-> Hits: 35608, Late: 293, Early: 0, Misses: 165
434-> Hits: 1002, Late: 0, Early: 0, Misses: 0
435-> Hits: 57, Late: 0, Early: 0, Misses: 0
436-> Hits: 1, Late: 0, Early: 0, Misses: 0
438-> Hits: 18, Late: 0, Early: 0, Misses: 0
439-> Hits: 1, Late: 0, Early: 0, Misses: 1
43a-> Hits: 12035, Late: 964, Early: 0, Misses: 0
43b-> Hits: 2, Late: 0, Early: 0, Misses: 0
43c-> Hits: 0, Late: 1, Early: 0, Misses: 0
43e-> Hits: 1657, Late: 1, Early: 0, Misses: 0
43f-> Hits: 3017, Late: 0, Early: 0, Misses: 0
440-> Hits: 1, Late: 2, Early: 0, Misses: 1
441-> Hits: 10, Late: 1, Early: 0, Misses: 0
442-> Hits: 10, Late: 0, Early: 0, Misses: 0
444-> Hits: 3248, Late: 0, Early: 0, Misses: 12
445-> Hits: 3, Late: 0, Early: 0, Misses: 0
446-> Hits: 11, Late: 0, Early: 0, Misses: 0
447-> Hits: 2899, Late: 117, Early: 0, Misses: 0
448-> Hits: 10, Late: 1, Early: 0, Misses: 1
44a-> Hits: 39, Late: 0, Early: 0, Misses: 0
44b-> Hits: 11, Late: 0, Early: 0, Misses: 0
44c-> Hits: 1355, Late: 0, Early: 0, Misses: 0
44d-> Hits: 2774, Late: 0, Early: 0, Misses: 0
44f-> Hits: 1, Late: 0, Early: 0, Misses: 0
451-> Hits: 1, Late: 0, Early: 0, Misses: 0
452-> Hits: 117, Late: 0, Early: 0, Misses: 0
453-> Hits: 0, Late: 1, Early: 0, Misses: 0
454-> Hits: 11, Late: 0, Early: 0, Misses: 0
455-> Hits: 2668, Late: 0, Early: 0, Misses: 348
456-> Hits: 22, Late: 0, Early: 0, Misses: 0
457-> Hits: 1, Late: 0, Early: 0, Misses: 0
458-> Hits: 116, Late: 0, Early: 0, Misses: 0
459-> Hits: 10, Late: 0, Early: 0, Misses: 0
45a-> Hits: 1465, Late: 0, Early: 0, Misses: 0
45c-> Hits: 1, Late: 0, Early: 0, Misses: 0
45e-> Hits: 11, Late: 0, Early: 0, Misses: 0
45f-> Hits: 6413, Late: 0, Early: 0, Misses: 34
460-> Hits: 1, Late: 2, Early: 0, Misses: 0
461-> Hits: 978, Late: 0, Early: 0, Misses: 0
462-> Hits: 4653, Late: 0, Early: 0, Misses: 44
463-> Hits: 2, Late: 0, Early: 0, Misses: 0
464-> Hits: 53175, Late: 0, Early: 0, Misses: 8
465-> Hits: 2, Late: 2, Early: 0, Misses: 0
466-> Hits: 13, Late: 0, Early: 0, Misses: 0
467-> Hits: 3090, Late: 0, Early: 0, Misses: 42
468-> Hits: 9, Late: 0, Early: 0, Misses: 117
469-> Hits: 21, Late: 0, Early: 0, Misses: 0
46a-> Hits: 60, Late: 0, Early: 0, Misses: 0
46b-> Hits: 17, Late: 1, Early: 0, Misses: 0
46c-> Hits: 53179, Late: 21, Early: 0, Misses: 2
46d-> Hits: 1568, Late: 0, Early: 0, Misses: 0
46e-> Hits: 18, Late: 1, Early: 0, Misses: 0
46f-> Hits: 10, Late: 0, Early: 0, Misses: 0
470-> Hits: 2008, Late: 1, Early: 0, Misses: 116
471-> Hits: 1, Late: 0, Early: 0, Misses: 0
473-> Hits: 3490, Late: 0, Early: 0, Misses: 36
475-> Hits: 109, Late: 1, Early: 0, Misses: 0
477-> Hits: 1, Late: 0, Early: 0, Misses: 0
478-> Hits: 53053, Late: 149, Early: 0, Misses: 0
479-> Hits: 609, Late: 0, Early: 0, Misses: 0
47c-> Hits: 256, Late: 0, Early: 0, Misses: 11
47d-> Hits: 57, Late: 14, Early: 0, Misses: 0
47e-> Hits: 3150, Late: 0, Early: 0, Misses: 69
47f-> Hits: 53056, Late: 0, Early: 0, Misses: 2
480-> Hits: 0, Late: 2, Early: 0, Misses: 0
481-> Hits: 3, Late: 0, Early: 0, Misses: 0
482-> Hits: 12, Late: 0, Early: 0, Misses: 0
484-> Hits: 114, Late: 0, Early: 0, Misses: 3
485-> Hits: 53, Late: 0, Early: 0, Misses: 0
486-> Hits: 2970, Late: 0, Early: 0, Misses: 0
487-> Hits: 52704, Late: 561, Early: 0, Misses: 1
488-> Hits: 0, Late: 0, Early: 0, Misses: 1
48b-> Hits: 54838, Late: 45, Early: 0, Misses: 2
48d-> Hits: 1, Late: 0, Early: 0, Misses: 0
48e-> Hits: 3133, Late: 0, Early: 0, Misses: 0
48f-> Hits: 2, Late: 0, Early: 0, Misses: 0
490-> Hits: 5942, Late: 34, Early: 0, Misses: 177
491-> Hits: 1180, Late: 0, Early: 0, Misses: 0
492-> Hits: 52, Late: 0, Early: 0, Misses: 0
493-> Hits: 2, Late: 0, Early: 0, Misses: 0
495-> Hits: 5673, Late: 145, Early: 0, Misses: 0
496-> Hits: 2758, Late: 1, Early: 0, Misses: 0
497-> Hits: 4749, Late: 0, Early: 0, Misses: 0
498-> Hits: 2, Late: 0, Early: 0, Misses: 0
499-> Hits: 52610, Late: 601, Early: 0, Misses: 0
49a-> Hits: 2, Late: 0, Early: 0, Misses: 0
49b-> Hits: 60, Late: 0, Early: 0, Misses: 0
49d-> Hits: 2, Late: 1, Early: 0, Misses: 0
49e-> Hits: 5801, Late: 0, Early: 0, Misses: 2
4a0-> Hits: 53145, Late: 55, Early: 0, Misses: 0
4a1-> Hits: 1, Late: 0, Early: 0, Misses: 0
4a2-> Hits: 3602, Late: 0, Early: 0, Misses: 2
4a3-> Hits: 4641, Late: 0, Early: 0, Misses: 0
4a4-> Hits: 19, Late: 1, Early: 0, Misses: 0
4a5-> Hits: 3120, Late: 2, Early: 0, Misses: 12
4a6-> Hits: 9911, Late: 64, Early: 0, Misses: 0
4a7-> Hits: 5662, Late: 0, Early: 0, Misses: 0
4a8-> Hits: 1080, Late: 0, Early: 0, Misses: 0
4a9-> Hits: 3, Late: 0, Early: 0, Misses: 0
4aa-> Hits: 2, Late: 0, Early: 0, Misses: 0
4ab-> Hits: 0, Late: 3, Early: 0, Misses: 0
4ac-> Hits: 4, Late: 0, Early: 0, Misses: 0
4ae-> Hits: 3016, Late: 0, Early: 0, Misses: 0
4af-> Hits: 2925, Late: 0, Early: 0, Misses: 0
4b0-> Hits: 89265, Late: 350, Early: 0, Misses: 8170
4b1-> Hits: 7, Late: 0, Early: 0, Misses: 0
4b4-> Hits: 56167, Late: 17, Early: 0, Misses: 492
4b6-> Hits: 2, Late: 0, Early: 0, Misses: 0
4b7-> Hits: 3, Late: 2, Early: 0, Misses: 0
4b8-> Hits: 54689, Late: 1062, Early: 0, Misses: 0
4b9-> Hits: 11200, Late: 30, Early: 0, Misses: 0
4bb-> Hits: 161, Late: 0, Early: 0, Misses: 0
4bc-> Hits: 52068, Late: 26, Early: 0, Misses: 1125
4be-> Hits: 1620, Late: 0, Early: 0, Misses: 0
4bf-> Hits: 2, Late: 0, Early: 0, Misses: 0
4c0-> Hits: 111069, Late: 1220, Early: 0, Misses: 0
4c2-> Hits: 1, Late: 0, Early: 0, Misses: 0
4c3-> Hits: 2, Late: 0, Early: 0, Misses: 0
4c4-> Hits: 3720, Late: 0, Early: 0, Misses: 0
4c5-> Hits: 12, Late: 0, Early: 0, Misses: 0
4c6-> Hits: 57810, Late: 0, Early: 0, Misses: 0
4c7-> Hits: 18, Late: 0, Early: 0, Misses: 0
4c8-> Hits: 53152, Late: 11, Early: 0, Misses: 74
4c9-> Hits: 118, Late: 0, Early: 0, Misses: 0
4ca-> Hits: 1, Late: 2, Early: 0, Misses: 0
4cc-> Hits: 100753, Late: 424, Early: 0, Misses: 146
4cd-> Hits: 1, Late: 0, Early: 0, Misses: 0
4ce-> Hits: 13458, Late: 0, Early: 0, Misses: 0
4cf-> Hits: 52260, Late: 279, Early: 0, Misses: 30
4d0-> Hits: 68, Late: 2, Early: 0, Misses: 0
4d1-> Hits: 117, Late: 0, Early: 0, Misses: 0
4d2-> Hits: 39, Late: 0, Early: 0, Misses: 0
4d3-> Hits: 2530, Late: 0, Early: 0, Misses: 0
4d4-> Hits: 55143, Late: 27, Early: 0, Misses: 1236
4d5-> Hits: 0, Late: 1, Early: 0, Misses: 0
4d6-> Hits: 1029, Late: 0, Early: 0, Misses: 0
4d9-> Hits: 1, Late: 2, Early: 0, Misses: 0
4da-> Hits: 52331, Late: 219, Early: 0, Misses: 0
4db-> Hits: 53069, Late: 4, Early: 0, Misses: 4
4dc-> Hits: 3186, Late: 0, Early: 0, Misses: 0
4dd-> Hits: 10160, Late: 2, Early: 0, Misses: 4
4de-> Hits: 3793, Late: 0, Early: 0, Misses: 0
4df-> Hits: 46725, Late: 0, Early: 0, Misses: 0
4e0-> Hits: 607, Late: 1239, Early: 0, Misses: 0
4e2-> Hits: 1, Late: 0, Early: 0, Misses: 0
4e3-> Hits: 53122, Late: 10, Early: 0, Misses: 105
4e4-> Hits: 1, Late: 0, Early: 0, Misses: 0
4e5-> Hits: 1619, Late: 3, Early: 0, Misses: 0
4e6-> Hits: 116, Late: 0, Early: 0, Misses: 0
4e7-> Hits: 51453, Late: 1116, Early: 0, Misses: 0
4e9-> Hits: 3, Late: 0, Early: 0, Misses: 0
4ea-> Hits: 2550, Late: 4, Early: 0, Misses: 0
4eb-> Hits: 1680, Late: 0, Early: 0, Misses: 0
4ec-> Hits: 833, Late: 0, Early: 0, Misses: 0
4ed-> Hits: 0, Late: 1, Early: 0, Misses: 0
4ee-> Hits: 3194, Late: 0, Early: 0, Misses: 0
4f0-> Hits: 2, Late: 0, Early: 0, Misses: 0
4f2-> Hits: 661, Late: 0, Early: 0, Misses: 114
4f3-> Hits: 3, Late: 0, Early: 0, Misses: 0
4f4-> Hits: 879, Late: 686, Early: 0, Misses: 0
4f5-> Hits: 295, Late: 0, Early: 0, Misses: 0
4f6-> Hits: 21, Late: 0, Early: 0, Misses: 0
4f7-> Hits: 897, Late: 0, Early: 0, Misses: 0
4f8-> Hits: 2, Late: 0, Early: 0, Misses: 0
4fa-> Hits: 55143, Late: 751, Early: 0, Misses: 0
4fb-> Hits: 0, Late: 4, Early: 0, Misses: 0
4fc-> Hits: 10, Late: 0, Early: 0, Misses: 0
4fd-> Hits: 3132, Late: 1, Early: 0, Misses: 0
4ff-> Hits: 2803, Late: 0, Early: 0, Misses: 0
500-> Hits: 1494, Late: 49, Early: 0, Misses: 0
501-> Hits: 756, Late: 0, Early: 0, Misses: 1
502-> Hits: 2861, Late: 0, Early: 0, Misses: 0
503-> Hits: 95, Late: 1, Early: 0, Misses: 0
504-> Hits: 119, Late: 0, Early: 0, Misses: 0
505-> Hits: 4436, Late: 1, Early: 0, Misses: 0
506-> Hits: 3407, Late: 82, Early: 0, Misses: 0
507-> Hits: 55112, Late: 556, Early: 0, Misses: 0
508-> Hits: 31, Late: 0, Early: 0, Misses: 0
50a-> Hits: 2934, Late: 1, Early: 0, Misses: 0
50b-> Hits: 1670, Late: 0, Early: 0, Misses: 0
50c-> Hits: 10, Late: 0, Early: 0, Misses: 116
50d-> Hits: 29035, Late: 914, Early: 0, Misses: 0
50f-> Hits: 1, Late: 0, Early: 0, Misses: 0
510-> Hits: 17054, Late: 289, Early: 0, Misses: 0
511-> Hits: 9, Late: 0, Early: 0, Misses: 0
513-> Hits: 104, Late: 1, Early: 0, Misses: 0
514-> Hits: 2744, Late: 13, Early: 0, Misses: 0
516-> Hits: 53522, Late: 0, Early: 0, Misses: 0
517-> Hits: 1607, Late: 0, Early: 0, Misses: 0
519-> Hits: 52577, Late: 495, Early: 0, Misses: 0
51a-> Hits: 2497, Late: 2, Early: 0, Misses: 0
51b-> Hits: 3077, Late: 0, Early: 0, Misses: 175
51c-> Hits: 3133, Late: 1, Early: 0, Misses: 0
51e-> Hits: 51603, Late: 954, Early: 0, Misses: 0
51f-> Hits: 31010, Late: 50, Early: 0, Misses: 0
520-> Hits: 1, Late: 3, Early: 0, Misses: 0
521-> Hits: 48017, Late: 17, Early: 0, Misses: 0
523-> Hits: 54071, Late: 318, Early: 0, Misses: 59
524-> Hits: 29475, Late: 76, Early: 0, Misses: 0
525-> Hits: 1, Late: 2, Early: 0, Misses: 0
528-> Hits: 3096, Late: 0, Early: 0, Misses: 39
529-> Hits: 1579, Late: 30, Early: 0, Misses: 0
52b-> Hits: 1709, Late: 0, Early: 0, Misses: 0
52c-> Hits: 51289, Late: 587, Early: 0, Misses: 110
52d-> Hits: 247, Late: 0, Early: 0, Misses: 5
52e-> Hits: 29, Late: 0, Early: 0, Misses: 0
52f-> Hits: 733, Late: 0, Early: 0, Misses: 0
530-> Hits: 147, Late: 2, Early: 0, Misses: 0
531-> Hits: 78010, Late: 66, Early: 0, Misses: 3
532-> Hits: 4, Late: 6, Early: 0, Misses: 6
533-> Hits: 52046, Late: 1402, Early: 0, Misses: 0
534-> Hits: 200, Late: 190, Early: 0, Misses: 5
535-> Hits: 1426, Late: 49, Early: 0, Misses: 8
536-> Hits: 5971, Late: 205, Early: 0, Misses: 0
537-> Hits: 93, Late: 10, Early: 0, Misses: 0
538-> Hits: 1689, Late: 0, Early: 0, Misses: 0
53a-> Hits: 394, Late: 0, Early: 0, Misses: 0
53b-> Hits: 52448, Late: 320, Early: 0, Misses: 0
53d-> Hits: 1, Late: 2, Early: 0, Misses: 0
53e-> Hits: 6499, Late: 3, Early: 0, Misses: 0
540-> Hits: 7787, Late: 72, Early: 0, Misses: 29
541-> Hits: 1, Late: 0, Early: 0, Misses: 0
542-> Hits: 2262, Late: 0, Early: 0, Misses: 0
544-> Hits: 163, Late: 0, Early: 0, Misses: 0
545-> Hits: 41, Late: 0, Early: 0, Misses: 0
546-> Hits: 15, Late: 0, Early: 0, Misses: 0
548-> Hits: 238, Late: 1, Early: 0, Misses: 0
549-> Hits: 117, Late: 0, Early: 0, Misses: 0
54b-> Hits: 48425, Late: 1, Early: 0, Misses: 0
54c-> Hits: 290, Late: 0, Early: 0, Misses: 0
54d-> Hits: 100, Late: 0, Early: 0, Misses: 0
54e-> Hits: 2, Late: 0, Early: 0, Misses: 0
54f-> Hits: 2, Late: 0, Early: 0, Misses: 0
550-> Hits: 39, Late: 0, Early: 0, Misses: 0
551-> Hits: 0, Late: 2, Early: 0, Misses: 114
552-> Hits: 3, Late: 1, Early: 0, Misses: 0
553-> Hits: 51474, Late: 1090, Early: 0, Misses: 0
554-> Hits: 23564, Late: 15, Early: 0, Misses: 0
555-> Hits: 120, Late: 1, Early: 0, Misses: 0
556-> Hits: 59416, Late: 0, Early: 0, Misses: 0
557-> Hits: 4738, Late: 0, Early: 0, Misses: 1
558-> Hits: 51311, Late: 1360, Early: 0, Misses: 0
559-> Hits: 1, Late: 0, Early: 0, Misses: 0
55a-> Hits: 2, Late: 3, Early: 0, Misses: 0
55b-> Hits: 6256, Late: 36, Early: 0, Misses: 13
55c-> Hits: 32, Late: 0, Early: 0, Misses: 0
55d-> Hits: 2844, Late: 1, Early: 0, Misses: 0
55e-> Hits: 61, Late: 0, Early: 0, Misses: 58
55f-> Hits: 1550, Late: 1, Early: 0, Misses: 0
560-> Hits: 8137, Late: 2, Early: 0, Misses: 0
561-> Hits: 8, Late: 2, Early: 0, Misses: 1
562-> Hits: 53201, Late: 0, Early: 0, Misses: 0
563-> Hits: 0, Late: 1, Early: 0, Misses: 0
564-> Hits: 54, Late: 10, Early: 0, Misses: 8
565-> Hits: 118, Late: 0, Early: 0, Misses: 0
566-> Hits: 120, Late: 0, Early: 0, Misses: 0
567-> Hits: 1736, Late: 1, Early: 0, Misses: 0
569-> Hits: 2894, Late: 0, Early: 0, Misses: 0
56a-> Hits: 92, Late: 0, Early: 0, Misses: 0
56c-> Hits: 125, Late: 0, Early: 0, Misses: 0
56d-> Hits: 110, Late: 0, Early: 0, Misses: 0
56f-> Hits: 896, Late: 0, Early: 0, Misses: 1
571-> Hits: 18194, Late: 498, Early: 0, Misses: 0
572-> Hits: 13, Late: 0, Early: 0, Misses: 0
573-> Hits: 97, Late: 0, Early: 0, Misses: 0
574-> Hits: 2, Late: 2, Early: 0, Misses: 0
575-> Hits: 2, Late: 0, Early: 0, Misses: 0
577-> Hits: 32, Late: 0, Early: 0, Misses: 0
57a-> Hits: 15, Late: 1, Early: 0, Misses: 0
57c-> Hits: 2, Late: 1, Early: 0, Misses: 116
57d-> Hits: 308, Late: 0, Early: 0, Misses: 6
57e-> Hits: 20, Late: 0, Early: 0, Misses: 0
57f-> Hits: 3097, Late: 0, Early: 0, Misses: 48
580-> Hits: 145, Late: 0, Early: 0, Misses: 0
581-> Hits: 253, Late: 0, Early: 0, Misses: 1
582-> Hits: 15, Late: 0, Early: 0, Misses: 0
583-> Hits: 25914, Late: 811, Early: 0, Misses: 0
584-> Hits: 19, Late: 2, Early: 0, Misses: 54
585-> Hits: 19, Late: 0, Early: 0, Misses: 0
587-> Hits: 6814, Late: 0, Early: 0, Misses: 0
588-> Hits: 133, Late: 1, Early: 0, Misses: 0
589-> Hits: 72, Late: 49, Early: 0, Misses: 0
58a-> Hits: 1562, Late: 0, Early: 0, Misses: 0
58b-> Hits: 3133, Late: 0, Early: 0, Misses: 0
58c-> Hits: 0, Late: 1, Early: 0, Misses: 0
58d-> Hits: 3126, Late: 0, Early: 0, Misses: 99
58f-> Hits: 2, Late: 0, Early: 0, Misses: 0
590-> Hits: 0, Late: 2, Early: 0, Misses: 0
591-> Hits: 115, Late: 0, Early: 0, Misses: 0
592-> Hits: 1648, Late: 4, Early: 0, Misses: 0
593-> Hits: 9, Late: 0, Early: 0, Misses: 0
594-> Hits: 2, Late: 0, Early: 0, Misses: 0
595-> Hits: 6184, Late: 0, Early: 0, Misses: 46
597-> Hits: 26427, Late: 3, Early: 0, Misses: 23
598-> Hits: 55, Late: 0, Early: 0, Misses: 0
59a-> Hits: 460, Late: 0, Early: 0, Misses: 0
59b-> Hits: 1436, Late: 0, Early: 0, Misses: 1
59c-> Hits: 179, Late: 0, Early: 0, Misses: 0
59d-> Hits: 18545, Late: 129, Early: 0, Misses: 0
59e-> Hits: 21669, Late: 3, Early: 0, Misses: 113
59f-> Hits: 2763, Late: 0, Early: 0, Misses: 0
5a0-> Hits: 60, Late: 0, Early: 0, Misses: 0
5a1-> Hits: 2211, Late: 0, Early: 0, Misses: 1
5a2-> Hits: 1308, Late: 0, Early: 0, Misses: 0
5a3-> Hits: 3093, Late: 1, Early: 0, Misses: 40
5a5-> Hits: 121, Late: 0, Early: 0, Misses: 0
5a7-> Hits: 45, Late: 0, Early: 0, Misses: 0
5a9-> Hits: 63, Late: 4, Early: 0, Misses: 0
5aa-> Hits: 685, Late: 2, Early: 0, Misses: 0
5ab-> Hits: 123453, Late: 1528, Early: 0, Misses: 0
5ac-> Hits: 23, Late: 0, Early: 0, Misses: 0
5ad-> Hits: 234, Late: 0, Early: 0, Misses: 1
5ae-> Hits: 2731, Late: 0, Early: 0, Misses: 0
5b0-> Hits: 116245, Late: 27, Early: 0, Misses: 0
5b1-> Hits: 1, Late: 0, Early: 0, Misses: 0
5b2-> Hits: 558, Late: 1, Early: 0, Misses: 0
5b3-> Hits: 20081, Late: 150, Early: 0, Misses: 0
5b4-> Hits: 140, Late: 0, Early: 0, Misses: 0
5b5-> Hits: 98443, Late: 309, Early: 0, Misses: 135
5b6-> Hits: 3017, Late: 0, Early: 0, Misses: 1
5b7-> Hits: 1, Late: 0, Early: 0, Misses: 0
5b8-> Hits: 2, Late: 0, Early: 0, Misses: 0
5b9-> Hits: 3557, Late: 0, Early: 0, Misses: 0
5ba-> Hits: 3020, Late: 8, Early: 0, Misses: 4
5bb-> Hits: 2, Late: 0, Early: 0, Misses: 0
5bc-> Hits: 33, Late: 0, Early: 0, Misses: 0
5bd-> Hits: 5, Late: 0, Early: 0, Misses: 116
5be-> Hits: 26341, Late: 3, Early: 0, Misses: 0
5bf-> Hits: 19, Late: 0, Early: 0, Misses: 0
5c0-> Hits: 54886, Late: 229, Early: 0, Misses: 0
5c1-> Hits: 0, Late: 1, Early: 0, Misses: 1
5c2-> Hits: 2870, Late: 3, Early: 0, Misses: 171
5c3-> Hits: 2, Late: 0, Early: 0, Misses: 0
5c4-> Hits: 1823, Late: 67, Early: 0, Misses: 0
5c5-> Hits: 19550, Late: 4, Early: 0, Misses: 0
5c6-> Hits: 1, Late: 0, Early: 0, Misses: 0
5c7-> Hits: 3830, Late: 190, Early: 0, Misses: 0
5c8-> Hits: 9, Late: 0, Early: 0, Misses: 0
5c9-> Hits: 5, Late: 0, Early: 0, Misses: 0
5ca-> Hits: 3, Late: 5, Early: 0, Misses: 1
5cb-> Hits: 3, Late: 0, Early: 0, Misses: 0
5cc-> Hits: 26757, Late: 106, Early: 0, Misses: 0
5cd-> Hits: 30, Late: 0, Early: 0, Misses: 0
5ce-> Hits: 1488, Late: 1, Early: 0, Misses: 0
5cf-> Hits: 2844, Late: 5, Early: 0, Misses: 286
5d0-> Hits: 0, Late: 2, Early: 0, Misses: 0
5d1-> Hits: 3, Late: 0, Early: 0, Misses: 0
5d2-> Hits: 1, Late: 0, Early: 0, Misses: 0
5d4-> Hits: 139, Late: 0, Early: 0, Misses: 0
5d5-> Hits: 22, Late: 0, Early: 0, Misses: 0
5d6-> Hits: 38, Late: 0, Early: 0, Misses: 0
5d7-> Hits: 116, Late: 1, Early: 0, Misses: 0
5d8-> Hits: 22, Late: 0, Early: 0, Misses: 0
5d9-> Hits: 25958, Late: 6, Early: 0, Misses: 18
5da-> Hits: 10, Late: 0, Early: 0, Misses: 0
5db-> Hits: 1620, Late: 0, Early: 0, Misses: 1
5dc-> Hits: 2, Late: 0, Early: 0, Misses: 0
5dd-> Hits: 7, Late: 0, Early: 0, Misses: 0
5de-> Hits: 43357, Late: 691, Early: 0, Misses: 0
5df-> Hits: 116, Late: 0, Early: 0, Misses: 0
5e0-> Hits: 25268, Late: 50, Early: 0, Misses: 0
5e1-> Hits: 3184, Late: 1, Early: 0, Misses: 0
5e2-> Hits: 3132, Late: 0, Early: 0, Misses: 0
5e3-> Hits: 24534, Late: 12, Early: 0, Misses: 0
5e4-> Hits: 1, Late: 1, Early: 0, Misses: 0
5e5-> Hits: 21945, Late: 3489, Early: 0, Misses: 0
5e6-> Hits: 82, Late: 0, Early: 0, Misses: 0
5e7-> Hits: 116, Late: 1, Early: 0, Misses: 0
5e8-> Hits: 2, Late: 0, Early: 0, Misses: 0
5e9-> Hits: 25025, Late: 307, Early: 0, Misses: 0
5eb-> Hits: 4104, Late: 43, Early: 0, Misses: 1
5ec-> Hits: 139, Late: 0, Early: 0, Misses: 0
5ed-> Hits: 21316, Late: 3730, Early: 0, Misses: 0
5ee-> Hits: 25935, Late: 221, Early: 0, Misses: 0
5ef-> Hits: 0, Late: 1, Early: 0, Misses: 0
5f0-> Hits: 3711, Late: 4, Early: 0, Misses: 576
5f1-> Hits: 21574, Late: 12, Early: 0, Misses: 0
5f2-> Hits: 25266, Late: 19, Early: 0, Misses: 0
5f3-> Hits: 25342, Late: 4, Early: 0, Misses: 507
5f4-> Hits: 368, Late: 0, Early: 0, Misses: 0
5f5-> Hits: 46627, Late: 332, Early: 0, Misses: 0
5f6-> Hits: 32, Late: 0, Early: 0, Misses: 0
5f7-> Hits: 315, Late: 0, Early: 0, Misses: 0
5f8-> Hits: 2, Late: 0, Early: 0, Misses: 0
5f9-> Hits: 3424, Late: 0, Early: 0, Misses: 58
5fb-> Hits: 307, Late: 1, Early: 0, Misses: 0
5fc-> Hits: 197, Late: 0, Early: 0, Misses: 0
5fd-> Hits: 44910, Late: 33, Early: 0, Misses: 0
5fe-> Hits: 15, Late: 0, Early: 0, Misses: 1
5ff-> Hits: 1, Late: 2, Early: 0, Misses: 0
600-> Hits: 4940, Late: 12, Early: 0, Misses: 401
601-> Hits: 2, Late: 0, Early: 0, Misses: 0
603-> Hits: 6245, Late: 89, Early: 0, Misses: 0
604-> Hits: 116, Late: 1, Early: 0, Misses: 0
605-> Hits: 5809, Late: 0, Early: 0, Misses: 0
606-> Hits: 5, Late: 0, Early: 0, Misses: 0
607-> Hits: 39, Late: 0, Early: 0, Misses: 0
608-> Hits: 3104, Late: 6, Early: 0, Misses: 0
60a-> Hits: 3132, Late: 0, Early: 0, Misses: 0
60b-> Hits: 4, Late: 0, Early: 0, Misses: 1
60c-> Hits: 2, Late: 0, Early: 0, Misses: 0
60d-> Hits: 8, Late: 0, Early: 0, Misses: 0
60e-> Hits: 4, Late: 0, Early: 0, Misses: 0
60f-> Hits: 21, Late: 0, Early: 0, Misses: 0
610-> Hits: 99726, Late: 2707, Early: 0, Misses: 22
612-> Hits: 19, Late: 0, Early: 0, Misses: 0
613-> Hits: 49872, Late: 62, Early: 0, Misses: 591
614-> Hits: 4555, Late: 1, Early: 0, Misses: 254
615-> Hits: 53559, Late: 372, Early: 0, Misses: 20
616-> Hits: 3110, Late: 0, Early: 0, Misses: 24
617-> Hits: 2378, Late: 0, Early: 0, Misses: 2
618-> Hits: 4, Late: 0, Early: 0, Misses: 0
619-> Hits: 78804, Late: 209, Early: 0, Misses: 247
61a-> Hits: 2, Late: 0, Early: 0, Misses: 0
61b-> Hits: 4, Late: 0, Early: 0, Misses: 0
61c-> Hits: 2, Late: 0, Early: 0, Misses: 0
61d-> Hits: 113, Late: 0, Early: 0, Misses: 0
61e-> Hits: 3, Late: 0, Early: 0, Misses: 0
61f-> Hits: 0, Late: 12, Early: 0, Misses: 0
620-> Hits: 8034, Late: 15925, Early: 0, Misses: 0
621-> Hits: 60, Late: 0, Early: 0, Misses: 0
622-> Hits: 2, Late: 0, Early: 0, Misses: 1
623-> Hits: 1620, Late: 0, Early: 0, Misses: 0
624-> Hits: 54185, Late: 290, Early: 0, Misses: 30
625-> Hits: 120, Late: 0, Early: 0, Misses: 0
626-> Hits: 16, Late: 0, Early: 0, Misses: 4
627-> Hits: 585, Late: 2, Early: 0, Misses: 0
628-> Hits: 33, Late: 0, Early: 0, Misses: 0
629-> Hits: 8080, Late: 20, Early: 0, Misses: 146
62a-> Hits: 848, Late: 92, Early: 0, Misses: 0
62b-> Hits: 66, Late: 0, Early: 0, Misses: 0
62c-> Hits: 128, Late: 0, Early: 0, Misses: 0
62d-> Hits: 50623, Late: 518, Early: 0, Misses: 0
62e-> Hits: 0, Late: 0, Early: 0, Misses: 1
62f-> Hits: 2, Late: 0, Early: 0, Misses: 0
630-> Hits: 3808, Late: 2825, Early: 0, Misses: 0
632-> Hits: 50266, Late: 50, Early: 0, Misses: 464
634-> Hits: 6630, Late: 6269, Early: 0, Misses: 0
635-> Hits: 56, Late: 0, Early: 0, Misses: 0
636-> Hits: 5, Late: 0, Early: 0, Misses: 0
638-> Hits: 149, Late: 0, Early: 0, Misses: 0
639-> Hits: 19951, Late: 46, Early: 0, Misses: 407
63a-> Hits: 39584, Late: 1, Early: 0, Misses: 0
63b-> Hits: 1, Late: 1, Early: 0, Misses: 3
63c-> Hits: 1, Late: 0, Early: 0, Misses: 0
63d-> Hits: 9, Late: 0, Early: 0, Misses: 0
63e-> Hits: 3299, Late: 0, Early: 0, Misses: 0
640-> Hits: 1765, Late: 0, Early: 0, Misses: 0
641-> Hits: 73, Late: 0, Early: 0, Misses: 0
642-> Hits: 48655, Late: 592, Early: 0, Misses: 0
643-> Hits: 372, Late: 0, Early: 0, Misses: 0
644-> Hits: 144, Late: 2, Early: 0, Misses: 0
645-> Hits: 4, Late: 0, Early: 0, Misses: 2
646-> Hits: 71510, Late: 49, Early: 0, Misses: 0
647-> Hits: 5432, Late: 0, Early: 0, Misses: 0
648-> Hits: 3269, Late: 73, Early: 0, Misses: 161
649-> Hits: 11, Late: 0, Early: 0, Misses: 0
64a-> Hits: 52, Late: 0, Early: 0, Misses: 0
64b-> Hits: 29798, Late: 61, Early: 0, Misses: 0
64c-> Hits: 1, Late: 0, Early: 0, Misses: 0
64d-> Hits: 41, Late: 0, Early: 0, Misses: 0
64e-> Hits: 48184, Late: 8, Early: 0, Misses: 581
64f-> Hits: 14, Late: 0, Early: 0, Misses: 0
650-> Hits: 1, Late: 1, Early: 0, Misses: 0
651-> Hits: 1333, Late: 0, Early: 0, Misses: 1
652-> Hits: 11, Late: 0, Early: 0, Misses: 0
653-> Hits: 24895, Late: 352, Early: 0, Misses: 0
654-> Hits: 116, Late: 1, Early: 0, Misses: 0
656-> Hits: 2908, Late: 0, Early: 0, Misses: 35
657-> Hits: 0, Late: 1, Early: 0, Misses: 0
658-> Hits: 1627, Late: 0, Early: 0, Misses: 0
659-> Hits: 50780, Late: 1016, Early: 0, Misses: 0
65a-> Hits: 15, Late: 0, Early: 0, Misses: 0
65b-> Hits: 3012, Late: 13, Early: 0, Misses: 1
65c-> Hits: 1, Late: 0, Early: 0, Misses: 0
65d-> Hits: 3452, Late: 0, Early: 0, Misses: 0
65e-> Hits: 10, Late: 2, Early: 0, Misses: 0
660-> Hits: 768, Late: 0, Early: 0, Misses: 5
661-> Hits: 740, Late: 1, Early: 0, Misses: 1
662-> Hits: 6165, Late: 0, Early: 0, Misses: 0
663-> Hits: 26154, Late: 6, Early: 0, Misses: 391
664-> Hits: 2, Late: 0, Early: 0, Misses: 0
665-> Hits: 47676, Late: 171, Early: 0, Misses: 906
666-> Hits: 625, Late: 3, Early: 0, Misses: 0
667-> Hits: 9, Late: 0, Early: 0, Misses: 0
668-> Hits: 25786, Late: 2, Early: 0, Misses: 0
669-> Hits: 5, Late: 0, Early: 0, Misses: 0
66a-> Hits: 3, Late: 0, Early: 0, Misses: 1
66b-> Hits: 1, Late: 1, Early: 0, Misses: 0
[...]
e72-> Hits: 1598, Late: 0, Early: 0, Misses: 0
e73-> Hits: 2, Late: 1, Early: 0, Misses: 0
e74-> Hits: 63, Late: 0, Early: 0, Misses: 0
e75-> Hits: 1971, Late: 0, Early: 0, Misses: 0
e76-> Hits: 2, Late: 0, Early: 0, Misses: 0
e77-> Hits: 48, Late: 0, Early: 0, Misses: 2
e78-> Hits: 2, Late: 0, Early: 0, Misses: 0
e79-> Hits: 60, Late: 0, Early: 0, Misses: 0
e7a-> Hits: 71, Late: 3, Early: 0, Misses: 0
e7b-> Hits: 17069, Late: 3013, Early: 0, Misses: 0
e7c-> Hits: 815, Late: 0, Early: 0, Misses: 0
e7d-> Hits: 3069, Late: 0, Early: 0, Misses: 0
e80-> Hits: 19913, Late: 4, Early: 0, Misses: 0
e82-> Hits: 60, Late: 2, Early: 0, Misses: 0
e83-> Hits: 2242, Late: 0, Early: 0, Misses: 0
e84-> Hits: 4, Late: 0, Early: 0, Misses: 0
e85-> Hits: 6083, Late: 113, Early: 0, Misses: 6
e86-> Hits: 10, Late: 0, Early: 0, Misses: 0
e87-> Hits: 0, Late: 1, Early: 0, Misses: 0
e88-> Hits: 0, Late: 2, Early: 0, Misses: 0
e89-> Hits: 3, Late: 0, Early: 0, Misses: 0
e8a-> Hits: 198, Late: 0, Early: 0, Misses: 0
e8b-> Hits: 327, Late: 3, Early: 0, Misses: 0
e8c-> Hits: 22583, Late: 0, Early: 0, Misses: 0
e8d-> Hits: 3143, Late: 1, Early: 0, Misses: 0
e8e-> Hits: 3, Late: 0, Early: 0, Misses: 0
e8f-> Hits: 4, Late: 11, Early: 0, Misses: 0
e90-> Hits: 26, Late: 1, Early: 0, Misses: 0
e91-> Hits: 19, Late: 0, Early: 0, Misses: 0
e92-> Hits: 19913, Late: 2716, Early: 0, Misses: 15
e93-> Hits: 3, Late: 0, Early: 0, Misses: 0
e94-> Hits: 3132, Late: 0, Early: 0, Misses: 0
e95-> Hits: 3, Late: 0, Early: 0, Misses: 0
e96-> Hits: 56, Late: 0, Early: 0, Misses: 0
e97-> Hits: 22119, Late: 185, Early: 0, Misses: 0
e98-> Hits: 8, Late: 1, Early: 0, Misses: 2
e99-> Hits: 1709, Late: 0, Early: 0, Misses: 0
e9a-> Hits: 1622, Late: 0, Early: 0, Misses: 0
e9b-> Hits: 4, Late: 0, Early: 0, Misses: 0
e9c-> Hits: 377, Late: 0, Early: 0, Misses: 0
e9d-> Hits: 8, Late: 0, Early: 0, Misses: 0
e9f-> Hits: 118, Late: 0, Early: 0, Misses: 0
ea0-> Hits: 63, Late: 5, Early: 0, Misses: 1
ea1-> Hits: 19455, Late: 0, Early: 0, Misses: 1
ea2-> Hits: 1623, Late: 0, Early: 0, Misses: 0
ea3-> Hits: 1, Late: 0, Early: 0, Misses: 0
ea4-> Hits: 1437, Late: 4, Early: 0, Misses: 0
ea5-> Hits: 125, Late: 0, Early: 0, Misses: 0
ea7-> Hits: 117, Late: 0, Early: 0, Misses: 0
ea8-> Hits: 3, Late: 3, Early: 0, Misses: 0
ea9-> Hits: 19437, Late: 0, Early: 0, Misses: 0
eaa-> Hits: 34, Late: 0, Early: 0, Misses: 0
eab-> Hits: 809, Late: 0, Early: 0, Misses: 0
eac-> Hits: 633, Late: 1, Early: 0, Misses: 0
ead-> Hits: 2, Late: 0, Early: 0, Misses: 0
eaf-> Hits: 177, Late: 1, Early: 0, Misses: 0
eb0-> Hits: 0, Late: 5, Early: 0, Misses: 0
eb1-> Hits: 1708, Late: 0, Early: 0, Misses: 0
eb2-> Hits: 3, Late: 0, Early: 0, Misses: 0
eb3-> Hits: 3, Late: 0, Early: 0, Misses: 0
eb4-> Hits: 340, Late: 2, Early: 0, Misses: 0
eb6-> Hits: 1, Late: 1, Early: 0, Misses: 0
eb7-> Hits: 1, Late: 0, Early: 0, Misses: 0
eb8-> Hits: 116, Late: 1, Early: 0, Misses: 0
eb9-> Hits: 3, Late: 0, Early: 0, Misses: 0
eba-> Hits: 3, Late: 0, Early: 0, Misses: 0
ebb-> Hits: 109, Late: 0, Early: 0, Misses: 0
ebc-> Hits: 1548, Late: 0, Early: 0, Misses: 0
ebe-> Hits: 48, Late: 0, Early: 0, Misses: 0
ebf-> Hits: 1, Late: 0, Early: 0, Misses: 0
ec0-> Hits: 23441, Late: 2957, Early: 0, Misses: 0
ec1-> Hits: 1, Late: 0, Early: 0, Misses: 0
ec2-> Hits: 3, Late: 0, Early: 0, Misses: 0
ec3-> Hits: 5, Late: 0, Early: 0, Misses: 0
ec4-> Hits: 6615, Late: 1058, Early: 0, Misses: 0
ec5-> Hits: 3184, Late: 0, Early: 0, Misses: 0
ec7-> Hits: 1620, Late: 0, Early: 0, Misses: 0
ec8-> Hits: 29, Late: 1, Early: 0, Misses: 36
ec9-> Hits: 22288, Late: 3426, Early: 0, Misses: 0
eca-> Hits: 4, Late: 2, Early: 0, Misses: 0
ecb-> Hits: 65, Late: 17, Early: 0, Misses: 1
ecc-> Hits: 412, Late: 1, Early: 0, Misses: 37
ecd-> Hits: 25125, Late: 464, Early: 0, Misses: 0
ece-> Hits: 5671, Late: 1220, Early: 0, Misses: 1
ed0-> Hits: 5, Late: 4, Early: 0, Misses: 1
ed1-> Hits: 10, Late: 0, Early: 0, Misses: 0
ed2-> Hits: 2, Late: 0, Early: 0, Misses: 0
ed3-> Hits: 23638, Late: 173, Early: 0, Misses: 0
ed4-> Hits: 322, Late: 0, Early: 0, Misses: 0
ed5-> Hits: 163, Late: 19, Early: 0, Misses: 0
ed7-> Hits: 1, Late: 0, Early: 0, Misses: 0
ed8-> Hits: 3, Late: 3, Early: 0, Misses: 0
eda-> Hits: 3, Late: 2, Early: 0, Misses: 0
edb-> Hits: 2, Late: 0, Early: 0, Misses: 0
edc-> Hits: 25, Late: 1, Early: 0, Misses: 37
edd-> Hits: 91, Late: 0, Early: 0, Misses: 0
ede-> Hits: 1562, Late: 1, Early: 0, Misses: 0
edf-> Hits: 1648, Late: 0, Early: 0, Misses: 0
ee0-> Hits: 4539, Late: 3, Early: 0, Misses: 50
ee1-> Hits: 1710, Late: 0, Early: 0, Misses: 0
ee5-> Hits: 345, Late: 0, Early: 0, Misses: 0
ee6-> Hits: 11, Late: 0, Early: 0, Misses: 0
ee7-> Hits: 3131, Late: 0, Early: 0, Misses: 0
ee8-> Hits: 17, Late: 1, Early: 0, Misses: 50
ee9-> Hits: 15, Late: 0, Early: 0, Misses: 0
eea-> Hits: 6337, Late: 29, Early: 0, Misses: 0
eeb-> Hits: 10, Late: 0, Early: 0, Misses: 0
eec-> Hits: 2, Late: 0, Early: 0, Misses: 0
eed-> Hits: 64, Late: 0, Early: 0, Misses: 0
eee-> Hits: 65, Late: 0, Early: 0, Misses: 0
ef0-> Hits: 46082, Late: 235, Early: 0, Misses: 775
ef1-> Hits: 10, Late: 2, Early: 0, Misses: 0
ef3-> Hits: 2, Late: 0, Early: 0, Misses: 0
ef4-> Hits: 2, Late: 0, Early: 0, Misses: 0
ef5-> Hits: 46163, Late: 247, Early: 0, Misses: 500
ef6-> Hits: 2, Late: 6, Early: 0, Misses: 0
ef7-> Hits: 0, Late: 2, Early: 0, Misses: 0
ef8-> Hits: 7, Late: 1, Early: 0, Misses: 1
ef9-> Hits: 3145, Late: 0, Early: 0, Misses: 0
efa-> Hits: 1620, Late: 0, Early: 0, Misses: 0
efb-> Hits: 2, Late: 0, Early: 0, Misses: 0
efd-> Hits: 2, Late: 1, Early: 0, Misses: 0
efe-> Hits: 16640, Late: 49, Early: 0, Misses: 0
eff-> Hits: 71, Late: 0, Early: 0, Misses: 0
f00-> Hits: 54221, Late: 146, Early: 0, Misses: 0
f01-> Hits: 42, Late: 0, Early: 0, Misses: 0
f02-> Hits: 4, Late: 0, Early: 0, Misses: 0
f03-> Hits: 8, Late: 0, Early: 0, Misses: 0
f05-> Hits: 47758, Late: 0, Early: 0, Misses: 0
f06-> Hits: 1572, Late: 0, Early: 0, Misses: 0
f07-> Hits: 118, Late: 0, Early: 0, Misses: 0
f08-> Hits: 3, Late: 0, Early: 0, Misses: 0
f09-> Hits: 23208, Late: 1166, Early: 0, Misses: 0
f0a-> Hits: 3, Late: 0, Early: 0, Misses: 0
f0b-> Hits: 6, Late: 0, Early: 0, Misses: 0
f0c-> Hits: 62, Late: 0, Early: 0, Misses: 0
f0d-> Hits: 1560, Late: 0, Early: 0, Misses: 0
f0e-> Hits: 28470, Late: 78, Early: 0, Misses: 0
f0f-> Hits: 16179, Late: 66, Early: 0, Misses: 0
f10-> Hits: 13, Late: 3, Early: 0, Misses: 0
f12-> Hits: 18, Late: 2, Early: 0, Misses: 0
f13-> Hits: 28359, Late: 124, Early: 0, Misses: 0
f14-> Hits: 2, Late: 1, Early: 0, Misses: 0
f15-> Hits: 123, Late: 0, Early: 0, Misses: 0
f16-> Hits: 10, Late: 0, Early: 0, Misses: 0
f18-> Hits: 3, Late: 2, Early: 0, Misses: 0
f19-> Hits: 48, Late: 0, Early: 0, Misses: 0
f1a-> Hits: 7, Late: 0, Early: 0, Misses: 0
f1b-> Hits: 4041, Late: 2, Early: 0, Misses: 0
f1c-> Hits: 2, Late: 0, Early: 0, Misses: 0
f1e-> Hits: 10, Late: 0, Early: 0, Misses: 0
f1f-> Hits: 28439, Late: 7, Early: 0, Misses: 1
f20-> Hits: 587, Late: 81, Early: 0, Misses: 0
f21-> Hits: 2, Late: 0, Early: 0, Misses: 0
f22-> Hits: 377, Late: 0, Early: 0, Misses: 0
f23-> Hits: 3132, Late: 0, Early: 0, Misses: 0
f24-> Hits: 55590, Late: 199, Early: 0, Misses: 0
f26-> Hits: 0, Late: 1, Early: 0, Misses: 0
f27-> Hits: 1, Late: 0, Early: 0, Misses: 0
f28-> Hits: 0, Late: 0, Early: 0, Misses: 1
f29-> Hits: 7586, Late: 25, Early: 0, Misses: 0
f2a-> Hits: 694, Late: 2717, Early: 0, Misses: 0
f2b-> Hits: 339, Late: 0, Early: 0, Misses: 0
f2c-> Hits: 9, Late: 0, Early: 0, Misses: 0
f2d-> Hits: 0, Late: 2, Early: 0, Misses: 0
f2e-> Hits: 1735, Late: 2, Early: 0, Misses: 116
f2f-> Hits: 2, Late: 0, Early: 0, Misses: 4
f30-> Hits: 3072, Late: 1, Early: 0, Misses: 1
f31-> Hits: 2, Late: 0, Early: 0, Misses: 0
f32-> Hits: 122, Late: 0, Early: 0, Misses: 0
f33-> Hits: 6037, Late: 259, Early: 0, Misses: 0
f34-> Hits: 16120, Late: 61, Early: 0, Misses: 0
f35-> Hits: 249, Late: 10, Early: 0, Misses: 0
f36-> Hits: 37, Late: 0, Early: 0, Misses: 0
f37-> Hits: 1, Late: 1, Early: 0, Misses: 0
f38-> Hits: 3, Late: 2, Early: 0, Misses: 0
f39-> Hits: 13439, Late: 57, Early: 0, Misses: 0
f3a-> Hits: 1695, Late: 0, Early: 0, Misses: 0
f3b-> Hits: 20, Late: 0, Early: 0, Misses: 0
f3c-> Hits: 2, Late: 0, Early: 0, Misses: 0
f3d-> Hits: 10, Late: 0, Early: 0, Misses: 0
f3e-> Hits: 3068, Late: 0, Early: 0, Misses: 0
f40-> Hits: 1416, Late: 107, Early: 0, Misses: 0
f41-> Hits: 1, Late: 0, Early: 0, Misses: 1
f42-> Hits: 2767, Late: 214, Early: 0, Misses: 0
f43-> Hits: 3233, Late: 0, Early: 0, Misses: 0
f44-> Hits: 73, Late: 0, Early: 0, Misses: 45
f46-> Hits: 37, Late: 0, Early: 0, Misses: 0
f47-> Hits: 9, Late: 1, Early: 0, Misses: 0
f48-> Hits: 987, Late: 403, Early: 0, Misses: 0
f49-> Hits: 22149, Late: 896, Early: 0, Misses: 0
f4a-> Hits: 3200, Late: 0, Early: 0, Misses: 0
f4b-> Hits: 3106, Late: 0, Early: 0, Misses: 0
f4c-> Hits: 6, Late: 0, Early: 0, Misses: 0
f4d-> Hits: 19527, Late: 0, Early: 0, Misses: 38
f4e-> Hits: 2570, Late: 0, Early: 0, Misses: 0
f4f-> Hits: 1, Late: 0, Early: 0, Misses: 2
f50-> Hits: 304, Late: 26, Early: 0, Misses: 0
f51-> Hits: 1676, Late: 0, Early: 0, Misses: 0
f52-> Hits: 3135, Late: 1, Early: 0, Misses: 0
f55-> Hits: 27700, Late: 29, Early: 0, Misses: 0
f56-> Hits: 544, Late: 0, Early: 0, Misses: 0
f57-> Hits: 4, Late: 0, Early: 0, Misses: 0
f58-> Hits: 5, Late: 0, Early: 0, Misses: 0
f59-> Hits: 4601, Late: 780, Early: 0, Misses: 0
f5a-> Hits: 9955, Late: 4, Early: 0, Misses: 111
f5b-> Hits: 118, Late: 0, Early: 0, Misses: 0
f5c-> Hits: 2, Late: 0, Early: 0, Misses: 0
f5d-> Hits: 0, Late: 2, Early: 0, Misses: 0
f5e-> Hits: 1, Late: 0, Early: 0, Misses: 0
f5f-> Hits: 2, Late: 0, Early: 0, Misses: 0
f60-> Hits: 26636, Late: 7142, Early: 0, Misses: 2
f61-> Hits: 27783, Late: 12, Early: 0, Misses: 0
f62-> Hits: 2, Late: 0, Early: 0, Misses: 0
f64-> Hits: 1540, Late: 0, Early: 0, Misses: 0
f65-> Hits: 305, Late: 3, Early: 0, Misses: 17
f67-> Hits: 118, Late: 0, Early: 0, Misses: 0
f68-> Hits: 32, Late: 0, Early: 0, Misses: 0
f69-> Hits: 1428, Late: 623, Early: 0, Misses: 0
f6a-> Hits: 32294, Late: 104, Early: 0, Misses: 19
f6b-> Hits: 21804, Late: 5, Early: 0, Misses: 293
f6c-> Hits: 26370, Late: 6, Early: 0, Misses: 571
f6d-> Hits: 0, Late: 2, Early: 0, Misses: 0
f6e-> Hits: 117, Late: 0, Early: 0, Misses: 2
f6f-> Hits: 2, Late: 0, Early: 0, Misses: 0
f70-> Hits: 1515, Late: 119, Early: 0, Misses: 0
f71-> Hits: 27827, Late: 208, Early: 0, Misses: 1
f72-> Hits: 24928, Late: 5951, Early: 0, Misses: 0
f73-> Hits: 1643, Late: 90, Early: 0, Misses: 0
f74-> Hits: 5, Late: 0, Early: 0, Misses: 0
f75-> Hits: 5, Late: 0, Early: 0, Misses: 0
f76-> Hits: 1622, Late: 2, Early: 0, Misses: 0
f77-> Hits: 1, Late: 0, Early: 0, Misses: 0
f78-> Hits: 28389, Late: 7, Early: 0, Misses: 0
f79-> Hits: 1676, Late: 0, Early: 0, Misses: 0
f7a-> Hits: 2, Late: 0, Early: 0, Misses: 1
f7b-> Hits: 1583, Late: 303, Early: 0, Misses: 0
f7c-> Hits: 27980, Late: 130, Early: 0, Misses: 118
f7e-> Hits: 23673, Late: 1, Early: 0, Misses: 0
f7f-> Hits: 5, Late: 0, Early: 0, Misses: 0
f80-> Hits: 8548, Late: 7, Early: 0, Misses: 77
f81-> Hits: 27960, Late: 120, Early: 0, Misses: 0
f82-> Hits: 1563, Late: 0, Early: 0, Misses: 0
f84-> Hits: 53, Late: 0, Early: 0, Misses: 0
f85-> Hits: 8702, Late: 0, Early: 0, Misses: 52
f86-> Hits: 25859, Late: 144, Early: 0, Misses: 0
f87-> Hits: 1550, Late: 0, Early: 0, Misses: 0
f88-> Hits: 6, Late: 1, Early: 0, Misses: 0
f89-> Hits: 1367, Late: 719, Early: 0, Misses: 1
f8a-> Hits: 0, Late: 1, Early: 0, Misses: 0
f8b-> Hits: 2, Late: 0, Early: 0, Misses: 0
f8c-> Hits: 116, Late: 0, Early: 0, Misses: 0
f8d-> Hits: 187, Late: 28, Early: 0, Misses: 0
f8e-> Hits: 8735, Late: 1, Early: 0, Misses: 0
f8f-> Hits: 3, Late: 0, Early: 0, Misses: 0
f90-> Hits: 6, Late: 2, Early: 0, Misses: 0
f91-> Hits: 1622, Late: 1, Early: 0, Misses: 0
f92-> Hits: 62, Late: 1, Early: 0, Misses: 0
f93-> Hits: 8695, Late: 0, Early: 0, Misses: 0
f94-> Hits: 2120, Late: 194, Early: 0, Misses: 9
f95-> Hits: 29836, Late: 171, Early: 0, Misses: 0
f96-> Hits: 1, Late: 0, Early: 0, Misses: 0
f97-> Hits: 26506, Late: 5, Early: 0, Misses: 571
f98-> Hits: 1675, Late: 140, Early: 0, Misses: 0
f99-> Hits: 3, Late: 0, Early: 0, Misses: 0
f9a-> Hits: 28355, Late: 6, Early: 0, Misses: 0
f9b-> Hits: 1385, Late: 582, Early: 0, Misses: 0
f9c-> Hits: 27572, Late: 220, Early: 0, Misses: 0
f9d-> Hits: 16, Late: 1, Early: 0, Misses: 0
f9e-> Hits: 1945, Late: 12, Early: 0, Misses: 0
f9f-> Hits: 3046, Late: 0, Early: 0, Misses: 0
fa0-> Hits: 1511, Late: 3, Early: 0, Misses: 0
fa3-> Hits: 1, Late: 0, Early: 0, Misses: 0
fa4-> Hits: 51, Late: 1, Early: 0, Misses: 0
fa5-> Hits: 0, Late: 1, Early: 0, Misses: 0
fa7-> Hits: 28111, Late: 3, Early: 0, Misses: 117
fa8-> Hits: 3161, Late: 0, Early: 0, Misses: 62
fa9-> Hits: 892, Late: 0, Early: 0, Misses: 0
faa-> Hits: 27881, Late: 11, Early: 0, Misses: 365
fac-> Hits: 27594, Late: 120, Early: 0, Misses: 0
fad-> Hits: 3, Late: 0, Early: 0, Misses: 0
fae-> Hits: 62, Late: 1, Early: 0, Misses: 0
faf-> Hits: 27162, Late: 170, Early: 0, Misses: 0
fb0-> Hits: 34, Late: 4, Early: 0, Misses: 85
fb1-> Hits: 3819, Late: 0, Early: 0, Misses: 0
fb2-> Hits: 4469, Late: 536, Early: 0, Misses: 0
fb3-> Hits: 1943, Late: 294, Early: 0, Misses: 0
fb4-> Hits: 117, Late: 0, Early: 0, Misses: 0
fb5-> Hits: 0, Late: 1, Early: 0, Misses: 0
fb6-> Hits: 5, Late: 1, Early: 0, Misses: 0
fb7-> Hits: 10603, Late: 0, Early: 0, Misses: 0
fb8-> Hits: 14, Late: 0, Early: 0, Misses: 0
fb9-> Hits: 4592, Late: 96, Early: 0, Misses: 0
fba-> Hits: 0, Late: 1, Early: 0, Misses: 0
fbb-> Hits: 105, Late: 1, Early: 0, Misses: 0
fbc-> Hits: 1, Late: 0, Early: 0, Misses: 0
fbd-> Hits: 0, Late: 1, Early: 0, Misses: 0
fbe-> Hits: 157, Late: 0, Early: 0, Misses: 0
fbf-> Hits: 24820, Late: 41, Early: 0, Misses: 0
fc0-> Hits: 1477, Late: 5, Early: 0, Misses: 1
fc1-> Hits: 253, Late: 0, Early: 0, Misses: 0
fc2-> Hits: 4, Late: 0, Early: 0, Misses: 0
fc6-> Hits: 1567, Late: 0, Early: 0, Misses: 0
fc7-> Hits: 27714, Late: 210, Early: 0, Misses: 0
fc8-> Hits: 4698, Late: 1, Early: 0, Misses: 0
fc9-> Hits: 257, Late: 0, Early: 0, Misses: 0
fcb-> Hits: 3014, Late: 1, Early: 0, Misses: 0
fcc-> Hits: 4, Late: 0, Early: 0, Misses: 0
fcd-> Hits: 1621, Late: 0, Early: 0, Misses: 0
fce-> Hits: 26, Late: 0, Early: 0, Misses: 0
fcf-> Hits: 2, Late: 0, Early: 0, Misses: 0
fd0-> Hits: 3263, Late: 232, Early: 0, Misses: 116
fd1-> Hits: 2, Late: 0, Early: 0, Misses: 0
fd2-> Hits: 84, Late: 0, Early: 0, Misses: 0
fd4-> Hits: 393, Late: 17, Early: 0, Misses: 0
fd5-> Hits: 1, Late: 0, Early: 0, Misses: 0
fd6-> Hits: 17, Late: 0, Early: 0, Misses: 0
fd8-> Hits: 4, Late: 1, Early: 0, Misses: 0
fd9-> Hits: 22215, Late: 1, Early: 0, Misses: 0
fda-> Hits: 1608, Late: 1, Early: 0, Misses: 5
fdb-> Hits: 1610, Late: 2, Early: 0, Misses: 0
fdc-> Hits: 1, Late: 0, Early: 0, Misses: 0
fdd-> Hits: 3060, Late: 0, Early: 0, Misses: 0
fde-> Hits: 10135, Late: 0, Early: 0, Misses: 0
fdf-> Hits: 3132, Late: 0, Early: 0, Misses: 0
fe0-> Hits: 9337, Late: 2175, Early: 0, Misses: 0
fe1-> Hits: 1, Late: 1, Early: 0, Misses: 0
fe3-> Hits: 1619, Late: 0, Early: 0, Misses: 0
fe4-> Hits: 290, Late: 40, Early: 0, Misses: 0
fe5-> Hits: 4, Late: 0, Early: 0, Misses: 0
fe6-> Hits: 1483, Late: 0, Early: 0, Misses: 116
fe7-> Hits: 118, Late: 0, Early: 0, Misses: 0
fe8-> Hits: 1987, Late: 47, Early: 0, Misses: 0
fe9-> Hits: 2146, Late: 1, Early: 0, Misses: 0
fea-> Hits: 6210, Late: 13, Early: 0, Misses: 0
feb-> Hits: 123, Late: 8, Early: 0, Misses: 0
fec-> Hits: 179, Late: 0, Early: 0, Misses: 0
fed-> Hits: 124, Late: 31, Early: 0, Misses: 0
fee-> Hits: 73, Late: 0, Early: 0, Misses: 0
fef-> Hits: 116, Late: 2, Early: 0, Misses: 0
ff0-> Hits: 288, Late: 3, Early: 0, Misses: 0
ff1-> Hits: 4, Late: 0, Early: 0, Misses: 0
ff2-> Hits: 1976, Late: 6, Early: 0, Misses: 3
ff3-> Hits: 5682, Late: 696, Early: 0, Misses: 0
ff4-> Hits: 128, Late: 0, Early: 0, Misses: 0
ff5-> Hits: 11, Late: 1, Early: 0, Misses: 0
ff6-> Hits: 0, Late: 1, Early: 0, Misses: 0
ff7-> Hits: 2, Late: 0, Early: 0, Misses: 0
ff8-> Hits: 267, Late: 0, Early: 0, Misses: 0
ff9-> Hits: 13, Late: 0, Early: 0, Misses: 0
ffa-> Hits: 118, Late: 0, Early: 0, Misses: 0
ffb-> Hits: 37, Late: 1, Early: 0, Misses: 0
ffc-> Hits: 215, Late: 0, Early: 0, Misses: 0
ffd-> Hits: 14, Late: 2, Early: 0, Misses: 0
ffe-> Hits: 1776, Late: 0, Early: 0, Misses: 0
Total misses (from ip) 516523
Total accesses (misses) 23838464 516523
Pref: Addr 0 IP 0 Current 0
 All Calls: 2428523
 Critical Calls: 2428523
------------------
Depth Distribution
------------------
depth 0: 0
depth 1: 2355025
depth 2: 1497768
depth 3: 1271503
depth 4: 1098200
depth 5: 927750
depth 6: 755071
depth 7: 540001
depth 8: 339582
depth 9: 190570
depth 10: 80819
depth 11: 39681
depth 12: 18253
depth 13: 4324
depth 14: 4
depth 15: 4
depth 16: 0
depth 17: 0
depth 18: 0
depth 19: 0
depth 20: 0
depth 21: 0
depth 22: 0
depth 23: 0
depth 24: 0
depth 25: 0
depth 26: 0
depth 27: 0
depth 28: 0
depth 29: 0
Total: 9118555
-----------------------------
-----------------------------
	Captured at Filter
-----------------------------
depth 0: 0
depth 1: 73062
depth 2: 59560
depth 3: 53647
depth 4: 47343
depth 5: 41657
depth 6: 35302
depth 7: 27124
depth 8: 18244
depth 9: 9848
depth 10: 3441
depth 11: 1474
depth 12: 607
depth 13: 93
depth 14: 0
depth 15: 0
depth 16: 0
depth 17: 0
depth 18: 0
depth 19: 0
depth 20: 0
depth 21: 0
depth 22: 0
depth 23: 0
depth 24: 0
depth 25: 0
depth 26: 0
depth 27: 0
depth 28: 0
depth 29: 0
-----------------------------
-----------------------------
		Lost at Page
-----------------------------
depth 0: 0
depth 1: 60033
depth 2: 63076
depth 3: 79248
depth 4: 94013
depth 5: 104433
depth 6: 108065
depth 7: 99077
depth 8: 78771
depth 9: 52045
depth 10: 23299
depth 11: 12455
depth 12: 6208
depth 13: 1751
depth 14: 2
depth 15: 2
depth 16: 0
depth 17: 0
depth 18: 0
depth 19: 0
depth 20: 0
depth 21: 0
depth 22: 0
depth 23: 0
depth 24: 0
depth 25: 0
depth 26: 0
depth 27: 0
depth 28: 0
depth 29: 0
-----------------------------
-----------------------------
	Lost due to PQ Size
-----------------------------
1040827
-----------------------------
ST read accesses: 1507621
ST write accesses: 26570
PT read accesses: 38186830
PT write accesses: 2248999
FILTER read accesses: 8440399
FILTER write accesses: 2225342
GHR read accesses: 2208212
GHR write accesses: 368393
GHR counter read accesses: 32491486
GHR counter write accesses: 2448305
ST tag read accesses: 603751731
ST tag write accesses: 23903964

DRAM Statistics
 CHANNEL 0
 RQ ROW_BUFFER_HIT:     368608  ROW_BUFFER_MISS:     913131
 DBUS_CONGESTED:        763
 WQ ROW_BUFFER_HIT:      96934  ROW_BUFFER_MISS:     290597  FULL:          0

 AVG_CONGESTED_CYCLE: 4
 All warmup complete: 2
Channel 0 Bank busy for read cycles: 0
Channel 0 Bank busy for write cycles: 0
Channel 0
Rank 0
0banks busy for read cycles: 16948629
0banks busy for write cycles: 13723
1banks busy for read cycles: 7490832
1banks busy for write cycles: 1606659
2banks busy for read cycles: 6407013
2banks busy for write cycles: 885682
3banks busy for read cycles: 4946573
3banks busy for write cycles: 604141
4banks busy for read cycles: 4280677
4banks busy for write cycles: 451674
5banks busy for read cycles: 4134990
5banks busy for write cycles: 366758
6banks busy for read cycles: 3883738
6banks busy for write cycles: 332709
7banks busy for read cycles: 3696840
7banks busy for write cycles: 762028
8banks busy for read cycles: 5064984
8banks busy for write cycles: 6630645

CPU 0 Branch Prediction Accuracy: 94.351% MPKI: 2.76312 Average ROB Occupancy at Mispredict: 51.0304
Branch types
NOT_BRANCH: 47553985 95.108%
BRANCH_DIRECT_JUMP: 3916 0.007832%
BRANCH_INDIRECT: 0 0%
BRANCH_CONDITIONAL: 2424085 4.84817%
BRANCH_DIRECT_CALL: 8847 0.017694%
BRANCH_INDIRECT_CALL: 0 0%
BRANCH_RETURN: 8845 0.01769%
BRANCH_OTHER: 0 0%

DRAM PAGES: 1048576
Allocated PAGES: 7750
