Initialize SIGNATURE TABLE
ST_SET: 1
ST_WAY: 256
ST_TAG_BIT: 16
ST_TAG_MASK: ffff

Initialize PATTERN TABLE
PT_SET: 512
PT_WAY: 4
SIG_DELTA_BIT: 7
C_SIG_BIT: 4
C_DELTA_BIT: 4

Initialize PREFETCH FILTER
FILTER_SET: 1024

*** ChampSim Multicore Out-of-Order Simulator ***

Warmup Instructions: 50000000
Simulation Instructions: 50000000
Number of CPUs: 1
LLC sets: 2048
LLC ways: 16
Off-chip DRAM Size: 4096 MB Channels: 1 Width: 64-bit Data Rate: 6400 MT/s
CPU 0 runs ./tracer/traces/605.mcf_s-484B.champsimtrace.xz
.xz
CPU 0 Bimodal branch predictor
BTB has LRU replacement policy
ITLB has LRU replacement policy
DTLB has LRU replacement policy
STLB has LRU replacement policy
L1I has LRU replacement policy
CPU 0 L1D Berti prefetcher
L1D has LRU replacement policy
ST_WAYS: 256
PT_SETS: 512
L2C has LRU replacement policy
Initialize SRRIP state
Heartbeat CPU 0 instructions: 10000001 cycles: 3171539 heartbeat IPC: 3.15304 cumulative IPC: 3.15304 (Simulation time: 0 hr 0 min 49 sec) 
Heartbeat CPU 0 instructions: 20000002 cycles: 6373844 heartbeat IPC: 3.12275 cumulative IPC: 3.13782 (Simulation time: 0 hr 1 min 41 sec) 
Heartbeat CPU 0 instructions: 30000001 cycles: 9542637 heartbeat IPC: 3.15578 cumulative IPC: 3.14379 (Simulation time: 0 hr 2 min 39 sec) 
Heartbeat CPU 0 instructions: 40000000 cycles: 12702981 heartbeat IPC: 3.16421 cumulative IPC: 3.14887 (Simulation time: 0 hr 3 min 45 sec) 
Heartbeat CPU 0 instructions: 50000000 cycles: 15885579 heartbeat IPC: 3.14209 cumulative IPC: 3.14751 (Simulation time: 0 hr 4 min 54 sec) 

Warmup complete CPU 0 instructions: 50000004 cycles: 15885580 (Simulation time: 0 hr 4 min 54 sec) 

Heartbeat CPU 0 instructions: 60000003 cycles: 36994282 heartbeat IPC: 0.473738 cumulative IPC: 0.473738 (Simulation time: 0 hr 6 min 34 sec) 
Heartbeat CPU 0 instructions: 70000002 cycles: 61772501 heartbeat IPC: 0.40358 cumulative IPC: 0.435854 (Simulation time: 0 hr 8 min 25 sec) 
Heartbeat CPU 0 instructions: 80000000 cycles: 88479112 heartbeat IPC: 0.374439 cumulative IPC: 0.41326 (Simulation time: 0 hr 10 min 11 sec) 
Heartbeat CPU 0 instructions: 90000000 cycles: 111059334 heartbeat IPC: 0.442865 cumulative IPC: 0.420284 (Simulation time: 0 hr 12 min 8 sec) 
Heartbeat CPU 0 instructions: 100000000 cycles: 131513098 heartbeat IPC: 0.488908 cumulative IPC: 0.432423 (Simulation time: 0 hr 14 min 54 sec) 
Finished CPU 0 instructions: 50000002 cycles: 115627536 cumulative IPC: 0.432423 (Simulation time: 0 hr 14 min 54 sec) 

ChampSim completed all CPUs

Region of Interest Statistics

CPU 0 cumulative IPC: 0.432423 instructions: 50000002 cycles: 115627536
ITLB TOTAL     ACCESS:    7647389  HIT:    7647389  MISS:          0  HIT %:        100  MISS %:          0   MPKI: 0
ITLB LOAD TRANSLATION ACCESS:    7647389  HIT:    7647389  MISS:          0  HIT %:        100  MISS %:          0   MPKI: 0
ITLB PREFETCH  REQUESTED:          0  ISSUED:          0  USEFUL:          0  USELESS:          0
ITLB USEFUL LOAD PREFETCHES:          0 PREFETCH ISSUED TO LOWER LEVEL:          0  ACCURACY: -nan
ITLB TIMELY PREFETCHES:          0 LATE PREFETCHES: 0 DROPPED PREFETCHES: 0
ITLB PREFETCHES SAME FILL-ORIGIN LEVEL: 0 DIFFERENT FILL-ORIGIN LEVEL: 0
ITLB AVERAGE MISS LATENCY: -nan cycles
ITLB RQ	ACCESS:   10420447	FORWARD:          0	MERGED:    2773059	TO_CACHE:    7647388

DTLB TOTAL     ACCESS:   13360886  HIT:   13237897  MISS:     122989  HIT %:    99.0795  MISS %:   0.920515   MPKI: 2.45978
DTLB LOAD TRANSLATION ACCESS:   13360886  HIT:   13237897  MISS:     122989  HIT %:    99.0795  MISS %:   0.920515   MPKI: 2.45978
DTLB PREFETCH  REQUESTED:          0  ISSUED:          0  USEFUL:          0  USELESS:          0
DTLB USEFUL LOAD PREFETCHES:          0 PREFETCH ISSUED TO LOWER LEVEL:          0  ACCURACY: -nan
DTLB TIMELY PREFETCHES:          0 LATE PREFETCHES: 0 DROPPED PREFETCHES: 0
DTLB PREFETCHES SAME FILL-ORIGIN LEVEL: 0 DIFFERENT FILL-ORIGIN LEVEL: 0
DTLB AVERAGE MISS LATENCY: 28.9895 cycles
DTLB RQ	ACCESS:   23355853	FORWARD:          0	MERGED:    9988279	TO_CACHE:   13367574

STLB TOTAL     ACCESS:    5548075  HIT:    5504751  MISS:      43324  HIT %:    99.2191  MISS %:   0.780883   MPKI: 0.86648
STLB LOAD TRANSLATION ACCESS:     122989  HIT:     104957  MISS:      18032  HIT %:    85.3385  MISS %:    14.6615   MPKI: 0.36064
STLB TRANSLATION FROM L1D PREFETCHER ACCESS:    5425086  HIT:    5399794  MISS:      25292  HIT %:    99.5338  MISS %:   0.466205   MPKI: 0.50584
STLB PREFETCH  REQUESTED:          0  ISSUED:          0  USEFUL:      25221  USELESS:         69
STLB USEFUL LOAD PREFETCHES:      25221 PREFETCH ISSUED TO LOWER LEVEL:          0  ACCURACY: inf
STLB TIMELY PREFETCHES:      25221 LATE PREFETCHES: 1878 DROPPED PREFETCHES: 1812
STLB PREFETCHES SAME FILL-ORIGIN LEVEL: 0 DIFFERENT FILL-ORIGIN LEVEL: 0
STLB AVERAGE MISS LATENCY: 1.38727e+06 cycles
STLB RQ	ACCESS:    7029308	FORWARD:          0	MERGED:    1464840	TO_CACHE:    5564468

STLB Hit, L1D data hit: 0
STLB Hit, L2C data hit: 0
STLB Hit, LLC data hit: 0
STLB Hit, LLC data miss: 0
STLB STLB hints to L2: 0
L1D TOTAL     ACCESS:   29222704  HIT:   27403581  MISS:    1819123  HIT %:     93.775  MISS %:    6.22503   MPKI: 36.3825
L1D LOAD      ACCESS:    9324656  HIT:    8728949  MISS:     595707  HIT %:    93.6115  MISS %:    6.38851   MPKI: 11.9141
L1D RFO       ACCESS:   13547194  HIT:   13416272  MISS:     130922  HIT %:    99.0336  MISS %:   0.966414   MPKI: 2.61844
L1D PREFETCH  ACCESS:    6350854  HIT:    5258360  MISS:    1092494  HIT %:    82.7977  MISS %:    17.2023   MPKI: 21.8499
AGUS PREFETCH L1 MISS: 0
L1D PREFETCH  REQUESTED:   13867836  ISSUED:   13867836  USEFUL:     796546  USELESS:     295981
L1D USEFUL LOAD PREFETCHES:     796546 PREFETCH ISSUED TO LOWER LEVEL:    1259630  ACCURACY: 63.2365
L1D TIMELY PREFETCHES:     796546 LATE PREFETCHES: 166977 DROPPED PREFETCHES: 1925
L1D PREFETCHES SAME FILL-ORIGIN LEVEL: 1259630 DIFFERENT FILL-ORIGIN LEVEL: 0
L1D AVERAGE MISS LATENCY: 6.79263e+06 cycles
L1D RQ	ACCESS:   15837780	FORWARD:          0	MERGED:    6483295	TO_CACHE:    9348149
L1D WQ	ACCESS:   14166007	FORWARD:       6336	MERGED:     158303	TO_CACHE:   14007704
L1D PQ	ACCESS:    6961517	FORWARD:          0	MERGED:      55198	TO_CACHE:    6906319

L1D UNIQUE REGIONS ACCESSED: 0
L1D REGIONS CONFLICTS: 0
L1D Cross Page Prefetch Requests: 0
L1D Same Page Prefetch Requests: 13551389
L1D ROI Sum of L1D PQ occupancy: 104853001
L1D PREFETCHES PUSHED FROM L2C: 0
L1I TOTAL     ACCESS:   10420446  HIT:   10420446  MISS:          0  HIT %:        100  MISS %:          0   MPKI: 0
L1I LOAD      ACCESS:   10420446  HIT:   10420446  MISS:          0  HIT %:        100  MISS %:          0   MPKI: 0
L1I PREFETCH  REQUESTED:          0  ISSUED:          0  USEFUL:          0  USELESS:          0
L1I USEFUL LOAD PREFETCHES:          0 PREFETCH ISSUED TO LOWER LEVEL:          0  ACCURACY: -nan
L1I TIMELY PREFETCHES:          0 LATE PREFETCHES: 0 DROPPED PREFETCHES: 0
L1I PREFETCHES SAME FILL-ORIGIN LEVEL: 0 DIFFERENT FILL-ORIGIN LEVEL: 0
L1I AVERAGE MISS LATENCY: -nan cycles
L1I RQ	ACCESS:   13781515	FORWARD:          0	MERGED:    3361068	TO_CACHE:   10420447

BTB TOTAL     ACCESS:    4939320  HIT:    4939286  MISS:         34  HIT %:    99.9993  MISS %: 0.000688354   MPKI: 0.00068
BTB BRANCH_DIRECT_JUMP	ACCESS:     263981  HIT:     263975  MISS:          6
BTB BRANCH_INDIRECT	ACCESS:          0  HIT:          0  MISS:          0
BTB BRANCH_CONDITIONAL	ACCESS:    4675287  HIT:    4675263  MISS:         24
BTB BRANCH_DIRECT_CALL	ACCESS:         26  HIT:         24  MISS:          2
BTB BRANCH_INDIRECT_CALL	ACCESS:          0  HIT:          0  MISS:          0
BTB BRANCH_RETURN	ACCESS:         26  HIT:         24  MISS:          2
BTB BRANCH_OTHER ACCESS:           0  HIT:          0  MISS:          0

L2C TOTAL     ACCESS:    2314868  HIT:     563677  MISS:    1751191  HIT %:    24.3503  MISS %:    75.6497   MPKI: 35.0238
L2C LOAD      ACCESS:     428712  HIT:      36614  MISS:     392098  HIT %:    8.54047  MISS %:    91.4595   MPKI: 7.84196
L2C DATA LOAD MPKI: 7.84196
L2C INSTRUCTION LOAD MPKI: 0
L2C RFO       ACCESS:     130762  HIT:       1507  MISS:     129255  HIT %:    1.15248  MISS %:    98.8475   MPKI: 2.5851
L2C PREFETCH  ACCESS:    1350148  HIT:     127373  MISS:    1222775  HIT %:      9.434  MISS %:     90.566   MPKI: 24.4555
AGUS PREFETCH L1 MISS: 0
L2C DATA PREFETCH MPKI: 24.4555
L2C INSTRUCTION PREFETCH MPKI: 0
L2C WRITEBACK ACCESS:     360016  HIT:     359219  MISS:        797  HIT %:    99.7786  MISS %:   0.221379   MPKI: 0.01594
L2C LOAD TRANSLATION ACCESS:      16212  HIT:      13572  MISS:       2640  HIT %:    83.7158  MISS %:    16.2842   MPKI: 0.0528
L2C TRANSLATION FROM L1D PREFETCHER ACCESS:      29018  HIT:      25392  MISS:       3626  HIT %:    87.5043  MISS %:    12.4957   MPKI: 0.07252
L2C PREFETCH  REQUESTED:     932161  ISSUED:     932158  USEFUL:      15208  USELESS:    1210748
L2C USEFUL LOAD PREFETCHES:      15208 PREFETCH ISSUED TO LOWER LEVEL:    1926495  ACCURACY: 0.789413
L2C TIMELY PREFETCHES:      15208 LATE PREFETCHES: 14 DROPPED PREFETCHES: 0
L2C PREFETCHES SAME FILL-ORIGIN LEVEL: 32095 DIFFERENT FILL-ORIGIN LEVEL: 703706
L2C AVERAGE MISS LATENCY: 171.523 cycles
L2C RQ	ACCESS:     604725	FORWARD:          0	MERGED:          0	TO_CACHE:     604705
L2C WQ	ACCESS:     360016	FORWARD:         23	MERGED:          0	TO_CACHE:     360016
L2C PQ	ACCESS:    2191787	FORWARD:          0	MERGED:     110346	TO_CACHE:    2081438

L2C Instructions Evicting Data 0
L2C Translations Evicting Data 6250
L2C Data Evicting Data 1737874
L2C Instructions Evicting Instructions 0
L2C Translations Evicting Instructions 0
L2C Data Evicting Instructions 0
L2C Instructions Evicting Translations 0
L2C Translations Evicting Translations 16
L2C Data Evicting Translations 6254
L2C Dense regions hint from L2: 0
PSCL5 TOTAL     ACCESS:      45137  HIT:      45137  MISS:          0  HIT %:        100  MISS %:          0   MPKI: 0
PSCL5 LOAD TRANSLATION ACCESS:      16155  HIT:      16155  MISS:          0  HIT %:        100  MISS %:          0   MPKI: 0
PSCL5 TRANSLATION FROM L1D PREFETCHER ACCESS:      28982  HIT:      28982  MISS:          0  HIT %:        100  MISS %:          0   MPKI: 0
PSCL5 PREFETCH  REQUESTED:          0  ISSUED:          0  USEFUL:          0  USELESS:          0
PSCL5 USEFUL LOAD PREFETCHES:          0 PREFETCH ISSUED TO LOWER LEVEL:          0  ACCURACY: -nan
PSCL5 TIMELY PREFETCHES:          0 LATE PREFETCHES: 0 DROPPED PREFETCHES: 0
PSCL5 PREFETCHES SAME FILL-ORIGIN LEVEL: 0 DIFFERENT FILL-ORIGIN LEVEL: 0

PSCL4 TOTAL     ACCESS:      45137  HIT:      45137  MISS:          0  HIT %:        100  MISS %:          0   MPKI: 0
PSCL4 LOAD TRANSLATION ACCESS:      16155  HIT:      16155  MISS:          0  HIT %:        100  MISS %:          0   MPKI: 0
PSCL4 TRANSLATION FROM L1D PREFETCHER ACCESS:      28982  HIT:      28982  MISS:          0  HIT %:        100  MISS %:          0   MPKI: 0
PSCL4 PREFETCH  REQUESTED:          0  ISSUED:          0  USEFUL:          0  USELESS:          0
PSCL4 USEFUL LOAD PREFETCHES:          0 PREFETCH ISSUED TO LOWER LEVEL:          0  ACCURACY: -nan
PSCL4 TIMELY PREFETCHES:          0 LATE PREFETCHES: 0 DROPPED PREFETCHES: 0
PSCL4 PREFETCHES SAME FILL-ORIGIN LEVEL: 0 DIFFERENT FILL-ORIGIN LEVEL: 0

PSCL3 TOTAL     ACCESS:      45137  HIT:      45137  MISS:          0  HIT %:        100  MISS %:          0   MPKI: 0
PSCL3 LOAD TRANSLATION ACCESS:      16155  HIT:      16155  MISS:          0  HIT %:        100  MISS %:          0   MPKI: 0
PSCL3 TRANSLATION FROM L1D PREFETCHER ACCESS:      28982  HIT:      28982  MISS:          0  HIT %:        100  MISS %:          0   MPKI: 0
PSCL3 PREFETCH  REQUESTED:          0  ISSUED:          0  USEFUL:          0  USELESS:          0
PSCL3 USEFUL LOAD PREFETCHES:          0 PREFETCH ISSUED TO LOWER LEVEL:          0  ACCURACY: -nan
PSCL3 TIMELY PREFETCHES:          0 LATE PREFETCHES: 0 DROPPED PREFETCHES: 0
PSCL3 PREFETCHES SAME FILL-ORIGIN LEVEL: 0 DIFFERENT FILL-ORIGIN LEVEL: 0

PSCL2 TOTAL     ACCESS:      45132  HIT:      45004  MISS:        128  HIT %:    99.7164  MISS %:   0.283613   MPKI: 0.00256
PSCL2 LOAD TRANSLATION ACCESS:      16191  HIT:      16063  MISS:        128  HIT %:    99.2094  MISS %:   0.790563   MPKI: 0.00256
PSCL2 TRANSLATION FROM L1D PREFETCHER ACCESS:      28941  HIT:      28941  MISS:          0  HIT %:        100  MISS %:          0   MPKI: 0
PSCL2 PREFETCH  REQUESTED:          0  ISSUED:          0  USEFUL:          0  USELESS:          0
PSCL2 USEFUL LOAD PREFETCHES:          0 PREFETCH ISSUED TO LOWER LEVEL:          0  ACCURACY: -nan
PSCL2 TIMELY PREFETCHES:          0 LATE PREFETCHES: 0 DROPPED PREFETCHES: 0
PSCL2 PREFETCHES SAME FILL-ORIGIN LEVEL: 0 DIFFERENT FILL-ORIGIN LEVEL: 0

LLC TOTAL     ACCESS:    2584256  HIT:     713968  MISS:    1870288  HIT %:    27.6276  MISS %:    72.3724   MPKI: 37.4058
LLC LOAD      ACCESS:     392085  HIT:      50835  MISS:     341250  HIT %:    12.9653  MISS %:    87.0347   MPKI: 6.825
LLC RFO       ACCESS:     129254  HIT:       1767  MISS:     127487  HIT %:    1.36708  MISS %:    98.6329   MPKI: 2.54974
LLC PREFETCH  ACCESS:    1723260  HIT:     358087  MISS:    1365173  HIT %:    20.7796  MISS %:    79.2204   MPKI: 27.3035
AGUS PREFETCH L1 MISS: 0
LLC WRITEBACK ACCESS:     333391  HIT:     303095  MISS:      30296  HIT %:    90.9128  MISS %:    9.08723   MPKI: 0.60592
LLC LOAD TRANSLATION ACCESS:       2640  HIT:        169  MISS:       2471  HIT %:    6.40152  MISS %:    93.5985   MPKI: 0.04942
LLC TRANSLATION FROM L1D PREFETCHER ACCESS:       3626  HIT:         15  MISS:       3611  HIT %:   0.413679  MISS %:    99.5863   MPKI: 0.07222
LLC PREFETCH  REQUESTED:          0  ISSUED:          0  USEFUL:      51136  USELESS:    1313874
LLC USEFUL LOAD PREFETCHES:      51136 PREFETCH ISSUED TO LOWER LEVEL:    1382369  ACCURACY: 3.69916
LLC TIMELY PREFETCHES:      51136 LATE PREFETCHES: 17195 DROPPED PREFETCHES: 0
LLC PREFETCHES SAME FILL-ORIGIN LEVEL: 530264 DIFFERENT FILL-ORIGIN LEVEL: 0
LLC AVERAGE MISS LATENCY: 172.572 cycles
LLC RQ	ACCESS:     527606	FORWARD:          0	MERGED:          0	TO_CACHE:     527606
LLC WQ	ACCESS:     333391	FORWARD:          0	MERGED:          0	TO_CACHE:     333391
LLC PQ	ACCESS:    1926495	FORWARD:          0	MERGED:      13166	TO_CACHE:    1913329

LLC Dense regions hint to LLC: 0

RAW hits: 377733
Loads Generated: 16215513
Loads sent to L1D: 15837780
Stores Generated: 14166002
Stores sent to L1D: 14166007
Major fault: 0 Minor fault: 31203
Allocated PAGES: 31203
CPU 0 L1D berti prefetcher final stats
12-> Hits: 1110103, Late: 26585, Early: 0, Misses: 7120
1c-> Hits: 736572, Late: 17636, Early: 0, Misses: 3379
2a-> Hits: 32992, Late: 255, Early: 0, Misses: 1
39-> Hits: 525682, Late: 19936, Early: 0, Misses: 2693
47-> Hits: 1537227, Late: 1, Early: 0, Misses: 0
73-> Hits: 691180, Late: 0, Early: 0, Misses: 0
7e-> Hits: 2097084, Late: 151387, Early: 0, Misses: 19532
83-> Hits: 2114590, Late: 136492, Early: 0, Misses: 16921
8c-> Hits: 1731645, Late: 0, Early: 0, Misses: 0
a4-> Hits: 69766, Late: 0, Early: 0, Misses: 0
b4-> Hits: 27419, Late: 0, Early: 0, Misses: 0
bc-> Hits: 47838, Late: 0, Early: 0, Misses: 1
c1-> Hits: 71000, Late: 0, Early: 0, Misses: 191
c9-> Hits: 16942, Late: 0, Early: 0, Misses: 0
ed-> Hits: 13128, Late: 0, Early: 0, Misses: 148
f5-> Hits: 81040, Late: 0, Early: 0, Misses: 0
fa-> Hits: 13531, Late: 0, Early: 0, Misses: 0
ff-> Hits: 134838, Late: 1, Early: 0, Misses: 0
124-> Hits: 229276, Late: 37, Early: 0, Misses: 1
162-> Hits: 1, Late: 0, Early: 0, Misses: 8
375-> Hits: 0, Late: 22, Early: 0, Misses: 0
38c-> Hits: 0, Late: 22, Early: 0, Misses: 0
3a0-> Hits: 0, Late: 22, Early: 0, Misses: 0
3b5-> Hits: 0, Late: 22, Early: 0, Misses: 0
3be-> Hits: 0, Late: 22, Early: 0, Misses: 0
3c2-> Hits: 0, Late: 22, Early: 0, Misses: 0
402-> Hits: 1, Late: 0, Early: 0, Misses: 0
429-> Hits: 22, Late: 0, Early: 0, Misses: 0
43d-> Hits: 22, Late: 0, Early: 0, Misses: 0
445-> Hits: 1, Late: 0, Early: 0, Misses: 0
463-> Hits: 22, Late: 0, Early: 0, Misses: 0
464-> Hits: 22, Late: 0, Early: 0, Misses: 0
465-> Hits: 22, Late: 0, Early: 0, Misses: 0
467-> Hits: 22, Late: 0, Early: 0, Misses: 0
469-> Hits: 22, Late: 0, Early: 0, Misses: 0
470-> Hits: 20, Late: 0, Early: 0, Misses: 0
7ae-> Hits: 0, Late: 22, Early: 0, Misses: 0
7c5-> Hits: 14, Late: 6, Early: 0, Misses: 0
843-> Hits: 12, Late: 5, Early: 0, Misses: 0
881-> Hits: 22, Late: 0, Early: 0, Misses: 0
89d-> Hits: 14, Late: 0, Early: 0, Misses: 5
89e-> Hits: 19, Late: 0, Early: 0, Misses: 0
89f-> Hits: 22, Late: 0, Early: 0, Misses: 0
8a1-> Hits: 22, Late: 0, Early: 0, Misses: 0
8a3-> Hits: 22, Late: 0, Early: 0, Misses: 0
8a5-> Hits: 22, Late: 0, Early: 0, Misses: 0
8a7-> Hits: 22, Late: 0, Early: 0, Misses: 0
966-> Hits: 0, Late: 1, Early: 0, Misses: 3
9be-> Hits: 9, Late: 13, Early: 0, Misses: 0
c71-> Hits: 0, Late: 22, Early: 0, Misses: 0
c80-> Hits: 20, Late: 0, Early: 0, Misses: 0
c88-> Hits: 0, Late: 0, Early: 0, Misses: 14
c8d-> Hits: 22, Late: 0, Early: 0, Misses: 0
c90-> Hits: 0, Late: 22, Early: 0, Misses: 0
c93-> Hits: 0, Late: 22, Early: 0, Misses: 0
c9d-> Hits: 2, Late: 0, Early: 0, Misses: 0
cad-> Hits: 0, Late: 0, Early: 0, Misses: 22
cb6-> Hits: 1, Late: 21, Early: 0, Misses: 0
ccf-> Hits: 1, Late: 1, Early: 0, Misses: 0
cf0-> Hits: 20, Late: 2, Early: 0, Misses: 0
cf8-> Hits: 20, Late: 0, Early: 0, Misses: 0
d40-> Hits: 0, Late: 22, Early: 0, Misses: 0
d62-> Hits: 22, Late: 0, Early: 0, Misses: 0
d6e-> Hits: 22, Late: 0, Early: 0, Misses: 0
d79-> Hits: 0, Late: 22, Early: 0, Misses: 0
d96-> Hits: 1, Late: 3, Early: 0, Misses: 0
d9f-> Hits: 13, Late: 9, Early: 0, Misses: 0
da3-> Hits: 5, Late: 0, Early: 0, Misses: 0
dab-> Hits: 14, Late: 7, Early: 0, Misses: 0
dc0-> Hits: 551184, Late: 2668, Early: 0, Misses: 0
dc3-> Hits: 338495, Late: 215357, Early: 0, Misses: 0
dc7-> Hits: 411691, Late: 94713, Early: 0, Misses: 0
dcb-> Hits: 379145, Late: 174707, Early: 0, Misses: 0
dd7-> Hits: 673, Late: 0, Early: 0, Misses: 0
dfb-> Hits: 477753, Late: 61958, Early: 0, Misses: 0
dff-> Hits: 307048, Late: 0, Early: 0, Misses: 0
e04-> Hits: 482209, Late: 6, Early: 0, Misses: 17
e09-> Hits: 62072, Late: 0, Early: 0, Misses: 0
e0e-> Hits: 646, Late: 0, Early: 0, Misses: 0
e18-> Hits: 178122, Late: 1, Early: 0, Misses: 486
e20-> Hits: 91705, Late: 0, Early: 0, Misses: 0
f3c-> Hits: 183060, Late: 13, Early: 0, Misses: 406
f40-> Hits: 22343, Late: 0, Early: 0, Misses: 410
f4b-> Hits: 42967, Late: 0, Early: 0, Misses: 0
f57-> Hits: 57241, Late: 0, Early: 0, Misses: 0
f6d-> Hits: 88005, Late: 0, Early: 0, Misses: 1
f72-> Hits: 99702, Late: 1, Early: 0, Misses: 260
f85-> Hits: 902960, Late: 27, Early: 0, Misses: 486
f8b-> Hits: 77250, Late: 0, Early: 0, Misses: 0
f93-> Hits: 80664, Late: 0, Early: 0, Misses: 0
f9c-> Hits: 22145, Late: 0, Early: 0, Misses: 0
fbc-> Hits: 100051, Late: 23, Early: 0, Misses: 341
fc5-> Hits: 98210, Late: 187, Early: 0, Misses: 185
fd4-> Hits: 97183, Late: 0, Early: 0, Misses: 0
ffb-> Hits: 2366445, Late: 11, Early: 0, Misses: 3
Total misses (from ip) 954968
Total accesses (misses) 19756330 954968
Pref: Addr 0 IP 0 Current 0
 All Calls: 2808851
 Critical Calls: 2808851
------------------
Depth Distribution
------------------
depth 0: 0
depth 1: 1580679
depth 2: 314761
depth 3: 141611
depth 4: 69123
depth 5: 35390
depth 6: 16618
depth 7: 6243
depth 8: 1949
depth 9: 165
depth 10: 27
depth 11: 8
depth 12: 4
depth 13: 0
depth 14: 0
depth 15: 0
depth 16: 0
depth 17: 0
depth 18: 0
depth 19: 0
depth 20: 0
depth 21: 0
depth 22: 0
depth 23: 0
depth 24: 0
depth 25: 0
depth 26: 0
depth 27: 0
depth 28: 0
depth 29: 0
Total: 2166578
-----------------------------
-----------------------------
	Captured at Filter
-----------------------------
depth 0: 0
depth 1: 3736
depth 2: 569
depth 3: 162
depth 4: 94
depth 5: 47
depth 6: 26
depth 7: 11
depth 8: 4
depth 9: 1
depth 10: 0
depth 11: 0
depth 12: 0
depth 13: 0
depth 14: 0
depth 15: 0
depth 16: 0
depth 17: 0
depth 18: 0
depth 19: 0
depth 20: 0
depth 21: 0
depth 22: 0
depth 23: 0
depth 24: 0
depth 25: 0
depth 26: 0
depth 27: 0
depth 28: 0
depth 29: 0
-----------------------------
-----------------------------
		Lost at Page
-----------------------------
depth 0: 0
depth 1: 76908
depth 2: 16298
depth 3: 8470
depth 4: 5127
depth 5: 3105
depth 6: 1691
depth 7: 741
depth 8: 287
depth 9: 31
depth 10: 6
depth 11: 4
depth 12: 2
depth 13: 0
depth 14: 0
depth 15: 0
depth 16: 0
depth 17: 0
depth 18: 0
depth 19: 0
depth 20: 0
depth 21: 0
depth 22: 0
depth 23: 0
depth 24: 0
depth 25: 0
depth 26: 0
depth 27: 0
depth 28: 0
depth 29: 0
-----------------------------
-----------------------------
	Lost due to PQ Size
-----------------------------
566
-----------------------------
ST read accesses: 1582458
ST write accesses: 42344
PT read accesses: 18903676
PT write accesses: 2347332
FILTER read accesses: 4310274
FILTER write accesses: 1834214
GHR read accesses: 606592
GHR write accesses: 44157
GHR counter read accesses: 13402412
GHR counter write accesses: 1690550
ST tag read accesses: 646226537
ST tag write accesses: 16185394

DRAM Statistics
 CHANNEL 0
 RQ ROW_BUFFER_HIT:     927405  ROW_BUFFER_MISS:     912584
 DBUS_CONGESTED:        683
 WQ ROW_BUFFER_HIT:      40246  ROW_BUFFER_MISS:     293398  FULL:          0

 AVG_CONGESTED_CYCLE: 4
 All warmup complete: 2
Channel 0 Bank busy for read cycles: 0
Channel 0 Bank busy for write cycles: 0
Channel 0
Rank 0
0banks busy for read cycles: 33943398
0banks busy for write cycles: 44568
1banks busy for read cycles: 18987017
1banks busy for write cycles: 5799766
2banks busy for read cycles: 13686878
2banks busy for write cycles: 3353500
3banks busy for read cycles: 8917571
3banks busy for write cycles: 2346624
4banks busy for read cycles: 6045820
4banks busy for write cycles: 1764546
5banks busy for read cycles: 4562375
5banks busy for write cycles: 1319241
6banks busy for read cycles: 3860924
6banks busy for write cycles: 945141
7banks busy for read cycles: 3270533
7banks busy for write cycles: 868122
8banks busy for read cycles: 2265001
8banks busy for write cycles: 3646512

CPU 0 Branch Prediction Accuracy: 98.167% MPKI: 1.85038 Average ROB Occupancy at Mispredict: 170.316
Branch types
NOT_BRANCH: 44952383 89.9048%
BRANCH_DIRECT_JUMP: 263981 0.527962%
BRANCH_INDIRECT: 0 0%
BRANCH_CONDITIONAL: 4783411 9.56682%
BRANCH_DIRECT_CALL: 26 5.2e-05%
BRANCH_INDIRECT_CALL: 0 0%
BRANCH_RETURN: 26 5.2e-05%
BRANCH_OTHER: 0 0%

DRAM PAGES: 1048576
Allocated PAGES: 31203
