
*** ChampSim Multicore Out-of-Order Simulator ***

Warmup Instructions: 50000000
Simulation Instructions: 50000000
Number of CPUs: 1
LLC sets: 2048
LLC ways: 16
Off-chip DRAM Size: 4096 MB Channels: 1 Width: 64-bit Data Rate: 6400 MT/s
CPU 0 runs tracer/traces/607.cactuBSSN_s-2421B.champsimtrace.xz
.xz
CPU 0 Bimodal branch predictor
BTB has LRU replacement policy
ITLB has LRU replacement policy
DTLB has LRU replacement policy
STLB has LRU replacement policy
L1I has LRU replacement policy
CPU 0 L1D Berti prefetcher
L1D has LRU replacement policy
Initialize SRRIP state for L2C
Initialize Hawkeye state
Heartbeat CPU 0 instructions: 10000002 cycles: 3572252 heartbeat IPC: 2.79936 cumulative IPC: 2.79936 (Simulation time: 0 hr 2 min 43 sec) 
Heartbeat CPU 0 instructions: 20000001 cycles: 7140095 heartbeat IPC: 2.80281 cumulative IPC: 2.80108 (Simulation time: 0 hr 6 min 4 sec) 
Heartbeat CPU 0 instructions: 30000002 cycles: 10711241 heartbeat IPC: 2.80022 cumulative IPC: 2.8008 (Simulation time: 0 hr 10 min 42 sec) 
Heartbeat CPU 0 instructions: 40000003 cycles: 14283183 heartbeat IPC: 2.7996 cumulative IPC: 2.8005 (Simulation time: 0 hr 14 min 53 sec) 
Heartbeat CPU 0 instructions: 50000003 cycles: 17853386 heartbeat IPC: 2.80096 cumulative IPC: 2.80059 (Simulation time: 0 hr 18 min 29 sec) 

Warmup complete CPU 0 instructions: 50000003 cycles: 17853386 (Simulation time: 0 hr 18 min 29 sec) 

Heartbeat CPU 0 instructions: 60000003 cycles: 30570228 heartbeat IPC: 0.786359 cumulative IPC: 0.786359 (Simulation time: 0 hr 22 min 22 sec) 
Heartbeat CPU 0 instructions: 70000000 cycles: 43045571 heartbeat IPC: 0.801581 cumulative IPC: 0.793897 (Simulation time: 0 hr 26 min 9 sec) 
Heartbeat CPU 0 instructions: 80000001 cycles: 55499057 heartbeat IPC: 0.802988 cumulative IPC: 0.796904 (Simulation time: 0 hr 29 min 58 sec) 
Heartbeat CPU 0 instructions: 90000000 cycles: 67982448 heartbeat IPC: 0.801064 cumulative IPC: 0.79794 (Simulation time: 0 hr 35 min 33 sec) 
Heartbeat CPU 0 instructions: 100000000 cycles: 80510144 heartbeat IPC: 0.798231 cumulative IPC: 0.797998 (Simulation time: 0 hr 41 min 5 sec) 
Finished CPU 0 instructions: 50000001 cycles: 62656759 cumulative IPC: 0.797998 (Simulation time: 0 hr 41 min 5 sec) 

ChampSim completed all CPUs

Region of Interest Statistics

CPU 0 cumulative IPC: 0.797998 instructions: 50000001 cycles: 62656759
ITLB TOTAL     ACCESS:    6688154  HIT:    6688100  MISS:         54  HIT %:    99.9992  MISS %: 0.000807398   MPKI: 0.00108
ITLB LOAD TRANSLATION ACCESS:    6688154  HIT:    6688100  MISS:         54  HIT %:    99.9992  MISS %: 0.000807398   MPKI: 0.00108
ITLB PREFETCH  REQUESTED:          0  ISSUED:          0  USEFUL:          0  USELESS:          0
ITLB USEFUL LOAD PREFETCHES:          0 PREFETCH ISSUED TO LOWER LEVEL:          0  ACCURACY: -nan
ITLB TIMELY PREFETCHES:          0 LATE PREFETCHES: 0 DROPPED PREFETCHES: 0
ITLB PREFETCHES SAME FILL-ORIGIN LEVEL: 0 DIFFERENT FILL-ORIGIN LEVEL: 0
ITLB AVERAGE MISS LATENCY: 323.463 cycles
ITLB RQ	ACCESS:    8748125	FORWARD:          0	MERGED:    2059962	TO_CACHE:    6688163

DTLB TOTAL     ACCESS:   10562185  HIT:    6868278  MISS:    3693907  HIT %:    65.0271  MISS %:    34.9729   MPKI: 73.8781
DTLB LOAD TRANSLATION ACCESS:   10562185  HIT:    6868278  MISS:    3693907  HIT %:    65.0271  MISS %:    34.9729   MPKI: 73.8781
DTLB PREFETCH  REQUESTED:          0  ISSUED:          0  USEFUL:          0  USELESS:          0
DTLB USEFUL LOAD PREFETCHES:          0 PREFETCH ISSUED TO LOWER LEVEL:          0  ACCURACY: -nan
DTLB TIMELY PREFETCHES:          0 LATE PREFETCHES: 0 DROPPED PREFETCHES: 0
DTLB PREFETCHES SAME FILL-ORIGIN LEVEL: 0 DIFFERENT FILL-ORIGIN LEVEL: 0
DTLB AVERAGE MISS LATENCY: 10.6677 cycles
DTLB RQ	ACCESS:   14712012	FORWARD:          0	MERGED:    3887138	TO_CACHE:   10824874

STLB TOTAL     ACCESS:    5930140  HIT:    5923944  MISS:       6196  HIT %:    99.8955  MISS %:   0.104483   MPKI: 0.12392
STLB LOAD TRANSLATION ACCESS:    3693961  HIT:    3687766  MISS:       6195  HIT %:    99.8323  MISS %:   0.167706   MPKI: 0.1239
STLB TRANSLATION FROM L1D PREFETCHER ACCESS:    2236179  HIT:    2236178  MISS:          1  HIT %:        100  MISS %: 4.47191e-05   MPKI: 2e-05
STLB PREFETCH  REQUESTED:          0  ISSUED:          0  USEFUL:          1  USELESS:          0
STLB USEFUL LOAD PREFETCHES:          1 PREFETCH ISSUED TO LOWER LEVEL:          0  ACCURACY: inf
STLB TIMELY PREFETCHES:          1 LATE PREFETCHES: 0 DROPPED PREFETCHES: 0
STLB PREFETCHES SAME FILL-ORIGIN LEVEL: 0 DIFFERENT FILL-ORIGIN LEVEL: 0
STLB AVERAGE MISS LATENCY: 756.164 cycles
STLB RQ	ACCESS:    7124541	FORWARD:          0	MERGED:    1194392	TO_CACHE:    5930149

STLB Hit, L1D data hit: 0
STLB Hit, L2C data hit: 0
STLB Hit, LLC data hit: 0
STLB Hit, LLC data miss: 0
STLB STLB hints to L2: 0
L1D TOTAL     ACCESS:   17754787  HIT:   11712975  MISS:    6041812  HIT %:    65.9708  MISS %:    34.0292   MPKI: 120.836
L1D LOAD      ACCESS:    8948121  HIT:    3726259  MISS:    5221862  HIT %:    41.6429  MISS %:    58.3571   MPKI: 104.437
L1D RFO       ACCESS:    5618290  HIT:    5222717  MISS:     395573  HIT %:    92.9592  MISS %:    7.04081   MPKI: 7.91146
L1D PREFETCH  ACCESS:    3188376  HIT:    2763999  MISS:     424377  HIT %:    86.6899  MISS %:    13.3101   MPKI: 8.48754
AGUS PREFETCH L1 MISS: 0
L1D PREFETCH  REQUESTED:    7222252  ISSUED:    7222252  USEFUL:     128600  USELESS:     295887
L1D USEFUL LOAD PREFETCHES:     128600 PREFETCH ISSUED TO LOWER LEVEL:     541066  ACCURACY: 23.7679
L1D TIMELY PREFETCHES:     128600 LATE PREFETCHES: 116583 DROPPED PREFETCHES: 0
L1D PREFETCHES SAME FILL-ORIGIN LEVEL: 541066 DIFFERENT FILL-ORIGIN LEVEL: 0
L1D AVERAGE MISS LATENCY: 966719 cycles
L1D RQ	ACCESS:   14449624	FORWARD:          0	MERGED:    5378606	TO_CACHE:    9065832
L1D WQ	ACCESS:    5647231	FORWARD:      17095	MERGED:       1051	TO_CACHE:    5646180
L1D PQ	ACCESS:    3791672	FORWARD:          0	MERGED:     349183	TO_CACHE:    3430580

L1D UNIQUE REGIONS ACCESSED: 0
L1D REGIONS CONFLICTS: 0
L1D Cross Page Prefetch Requests: 0
L1D Same Page Prefetch Requests: 13571002
L1D ROI Sum of L1D PQ occupancy: 43531179
L1D PREFETCHES PUSHED FROM L2C: 0
L1I TOTAL     ACCESS:    8722992  HIT:    8673335  MISS:      49657  HIT %:    99.4307  MISS %:   0.569266   MPKI: 0.99314
L1I LOAD      ACCESS:    8722992  HIT:    8673335  MISS:      49657  HIT %:    99.4307  MISS %:   0.569266   MPKI: 0.99314
L1I PREFETCH  REQUESTED:          0  ISSUED:          0  USEFUL:          0  USELESS:          0
L1I USEFUL LOAD PREFETCHES:          0 PREFETCH ISSUED TO LOWER LEVEL:          0  ACCURACY: -nan
L1I TIMELY PREFETCHES:          0 LATE PREFETCHES: 0 DROPPED PREFETCHES: 0
L1I PREFETCHES SAME FILL-ORIGIN LEVEL: 0 DIFFERENT FILL-ORIGIN LEVEL: 0
L1I AVERAGE MISS LATENCY: 17.0678 cycles
L1I RQ	ACCESS:   12933481	FORWARD:          0	MERGED:    4185356	TO_CACHE:    8748125

BTB TOTAL     ACCESS:      73960  HIT:      70750  MISS:       3210  HIT %:    95.6598  MISS %:    4.34018   MPKI: 0.0642
BTB BRANCH_DIRECT_JUMP	ACCESS:      16920  HIT:      16886  MISS:         34
BTB BRANCH_INDIRECT	ACCESS:      14629  HIT:      14551  MISS:         78
BTB BRANCH_CONDITIONAL	ACCESS:      30377  HIT:      29979  MISS:        398
BTB BRANCH_DIRECT_CALL	ACCESS:       6013  HIT:       5388  MISS:        625
BTB BRANCH_INDIRECT_CALL	ACCESS:          3  HIT:          0  MISS:          3
BTB BRANCH_RETURN	ACCESS:       6018  HIT:       3946  MISS:       2072
BTB BRANCH_OTHER ACCESS:          0  HIT:          0  MISS:          0

L2C TOTAL     ACCESS:    6446054  HIT:    5890426  MISS:     555628  HIT %:    91.3803  MISS %:    8.61966   MPKI: 11.1126
L2C LOAD      ACCESS:    5058172  HIT:    4560956  MISS:     497216  HIT %:      90.17  MISS %:    9.82995   MPKI: 9.94432
L2C DATA LOAD MPKI: 9.92742
L2C INSTRUCTION LOAD MPKI: 0.0169
L2C RFO       ACCESS:     394824  HIT:     386178  MISS:       8646  HIT %:    97.8102  MISS %:    2.18984   MPKI: 0.17292
L2C PREFETCH  ACCESS:     540881  HIT:     499742  MISS:      41139  HIT %:    92.3941  MISS %:    7.60592   MPKI: 0.82278
AGUS PREFETCH L1 MISS: 0
L2C DATA PREFETCH MPKI: 0.82278
L2C INSTRUCTION PREFETCH MPKI: 0
L2C WRITEBACK ACCESS:     442621  HIT:     442533  MISS:         88  HIT %:    99.9801  MISS %:  0.0198816   MPKI: 0.00176
L2C LOAD TRANSLATION ACCESS:       9554  HIT:       1017  MISS:       8537  HIT %:    10.6448  MISS %:    89.3552   MPKI: 0.17074
L2C TRANSLATION FROM L1D PREFETCHER ACCESS:          2  HIT:          0  MISS:          2  HIT %:          0  MISS %:        100   MPKI: 4e-05
L2C PREFETCH  REQUESTED:          0  ISSUED:          0  USEFUL:      26156  USELESS:      15732
L2C USEFUL LOAD PREFETCHES:      26156 PREFETCH ISSUED TO LOWER LEVEL:      41139  ACCURACY: 63.5796
L2C TIMELY PREFETCHES:      26156 LATE PREFETCHES: 0 DROPPED PREFETCHES: 0
L2C PREFETCHES SAME FILL-ORIGIN LEVEL: 0 DIFFERENT FILL-ORIGIN LEVEL: 0
L2C AVERAGE MISS LATENCY: 226.57 cycles
L2C RQ	ACCESS:    5559959	FORWARD:          0	MERGED:          0	TO_CACHE:    5462552
L2C WQ	ACCESS:     442621	FORWARD:      97592	MERGED:          0	TO_CACHE:     442621
L2C PQ	ACCESS:     541066	FORWARD:          0	MERGED:          0	TO_CACHE:     540881

L2C Instructions Evicting Data 806
L2C Translations Evicting Data 8361
L2C Data Evicting Data 536894
L2C Instructions Evicting Instructions 26
L2C Translations Evicting Instructions 22
L2C Data Evicting Instructions 944
L2C Instructions Evicting Translations 13
L2C Translations Evicting Translations 156
L2C Data Evicting Translations 8318
L2C Dense regions hint from L2: 0
PSCL5 TOTAL     ACCESS:       6196  HIT:       6196  MISS:          0  HIT %:        100  MISS %:          0   MPKI: 0
PSCL5 LOAD TRANSLATION ACCESS:       6195  HIT:       6195  MISS:          0  HIT %:        100  MISS %:          0   MPKI: 0
PSCL5 TRANSLATION FROM L1D PREFETCHER ACCESS:          1  HIT:          1  MISS:          0  HIT %:        100  MISS %:          0   MPKI: 0
PSCL5 PREFETCH  REQUESTED:          0  ISSUED:          0  USEFUL:          0  USELESS:          0
PSCL5 USEFUL LOAD PREFETCHES:          0 PREFETCH ISSUED TO LOWER LEVEL:          0  ACCURACY: -nan
PSCL5 TIMELY PREFETCHES:          0 LATE PREFETCHES: 0 DROPPED PREFETCHES: 0
PSCL5 PREFETCHES SAME FILL-ORIGIN LEVEL: 0 DIFFERENT FILL-ORIGIN LEVEL: 0

PSCL4 TOTAL     ACCESS:       6196  HIT:       6196  MISS:          0  HIT %:        100  MISS %:          0   MPKI: 0
PSCL4 LOAD TRANSLATION ACCESS:       6195  HIT:       6195  MISS:          0  HIT %:        100  MISS %:          0   MPKI: 0
PSCL4 TRANSLATION FROM L1D PREFETCHER ACCESS:          1  HIT:          1  MISS:          0  HIT %:        100  MISS %:          0   MPKI: 0
PSCL4 PREFETCH  REQUESTED:          0  ISSUED:          0  USEFUL:          0  USELESS:          0
PSCL4 USEFUL LOAD PREFETCHES:          0 PREFETCH ISSUED TO LOWER LEVEL:          0  ACCURACY: -nan
PSCL4 TIMELY PREFETCHES:          0 LATE PREFETCHES: 0 DROPPED PREFETCHES: 0
PSCL4 PREFETCHES SAME FILL-ORIGIN LEVEL: 0 DIFFERENT FILL-ORIGIN LEVEL: 0

PSCL3 TOTAL     ACCESS:       6196  HIT:       6195  MISS:          1  HIT %:    99.9839  MISS %:  0.0161394   MPKI: 2e-05
PSCL3 LOAD TRANSLATION ACCESS:       6195  HIT:       6194  MISS:          1  HIT %:    99.9839  MISS %:  0.0161421   MPKI: 2e-05
PSCL3 TRANSLATION FROM L1D PREFETCHER ACCESS:          1  HIT:          1  MISS:          0  HIT %:        100  MISS %:          0   MPKI: 0
PSCL3 PREFETCH  REQUESTED:          0  ISSUED:          0  USEFUL:          0  USELESS:          0
PSCL3 USEFUL LOAD PREFETCHES:          0 PREFETCH ISSUED TO LOWER LEVEL:          0  ACCURACY: -nan
PSCL3 TIMELY PREFETCHES:          0 LATE PREFETCHES: 0 DROPPED PREFETCHES: 0
PSCL3 PREFETCHES SAME FILL-ORIGIN LEVEL: 0 DIFFERENT FILL-ORIGIN LEVEL: 0

PSCL2 TOTAL     ACCESS:       6196  HIT:       2773  MISS:       3423  HIT %:    44.7547  MISS %:    55.2453   MPKI: 0.06846
PSCL2 LOAD TRANSLATION ACCESS:       6196  HIT:       2773  MISS:       3423  HIT %:    44.7547  MISS %:    55.2453   MPKI: 0.06846
PSCL2 PREFETCH  REQUESTED:          0  ISSUED:          0  USEFUL:          0  USELESS:          0
PSCL2 USEFUL LOAD PREFETCHES:          0 PREFETCH ISSUED TO LOWER LEVEL:          0  ACCURACY: -nan
PSCL2 TIMELY PREFETCHES:          0 LATE PREFETCHES: 0 DROPPED PREFETCHES: 0
PSCL2 PREFETCHES SAME FILL-ORIGIN LEVEL: 0 DIFFERENT FILL-ORIGIN LEVEL: 0

LLC TOTAL     ACCESS:     602670  HIT:     183057  MISS:     419613  HIT %:    30.3743  MISS %:    69.6257   MPKI: 8.39226
LLC LOAD      ACCESS:     497214  HIT:     128893  MISS:     368321  HIT %:     25.923  MISS %:     74.077   MPKI: 7.36642
LLC RFO       ACCESS:       8644  HIT:       7118  MISS:       1526  HIT %:    82.3461  MISS %:    17.6539   MPKI: 0.03052
LLC PREFETCH  ACCESS:      41123  HIT:      24744  MISS:      16379  HIT %:    60.1707  MISS %:    39.8293   MPKI: 0.32758
AGUS PREFETCH L1 MISS: 0
LLC WRITEBACK ACCESS:      47150  HIT:      19265  MISS:      27885  HIT %:     40.859  MISS %:     59.141   MPKI: 0.5577
LLC LOAD TRANSLATION ACCESS:       8537  HIT:       3036  MISS:       5501  HIT %:    35.5628  MISS %:    64.4372   MPKI: 0.11002
LLC TRANSLATION FROM L1D PREFETCHER ACCESS:          2  HIT:          1  MISS:          1  HIT %:         50  MISS %:         50   MPKI: 2e-05
LLC PREFETCH  REQUESTED:          0  ISSUED:          0  USEFUL:      10522  USELESS:      11054
LLC USEFUL LOAD PREFETCHES:      10522 PREFETCH ISSUED TO LOWER LEVEL:      16379  ACCURACY: 64.2408
LLC TIMELY PREFETCHES:      10522 LATE PREFETCHES: 0 DROPPED PREFETCHES: 0
LLC PREFETCHES SAME FILL-ORIGIN LEVEL: 0 DIFFERENT FILL-ORIGIN LEVEL: 0
LLC AVERAGE MISS LATENCY: 259.032 cycles
LLC RQ	ACCESS:     514401	FORWARD:          0	MERGED:          0	TO_CACHE:     514397
LLC WQ	ACCESS:      47150	FORWARD:         20	MERGED:          0	TO_CACHE:      47150
LLC PQ	ACCESS:      41139	FORWARD:          0	MERGED:          0	TO_CACHE:      41123

LLC Dense regions hint to LLC: 0

RAW hits: 23823
Loads Generated: 14473447
Loads sent to L1D: 14449624
Stores Generated: 5647292
Stores sent to L1D: 5647286
Major fault: 0 Minor fault: 8641
Allocated PAGES: 8641
CPU 0 L1D berti prefetcher final stats
2-> Hits: 0, Late: 14168, Early: 0, Misses: 0
3-> Hits: 4695, Late: 4732, Early: 0, Misses: 0
5-> Hits: 1, Late: 14167, Early: 0, Misses: 0
6-> Hits: 858, Late: 8568, Early: 0, Misses: 0
7-> Hits: 6250, Late: 0, Early: 0, Misses: 0
8-> Hits: 14870, Late: 1201, Early: 0, Misses: 0
e-> Hits: 13843, Late: 471, Early: 0, Misses: 0
12-> Hits: 2803, Late: 0, Early: 0, Misses: 0
17-> Hits: 2946, Late: 148, Early: 0, Misses: 0
18-> Hits: 15777, Late: 0, Early: 0, Misses: 0
19-> Hits: 10485, Late: 0, Early: 0, Misses: 0
1a-> Hits: 2751, Late: 6675, Early: 0, Misses: 0
1e-> Hits: 5409, Late: 1579, Early: 0, Misses: 0
20-> Hits: 12784, Late: 0, Early: 0, Misses: 0
21-> Hits: 14249, Late: 0, Early: 0, Misses: 0
22-> Hits: 9427, Late: 0, Early: 0, Misses: 0
24-> Hits: 1414, Late: 39, Early: 0, Misses: 0
25-> Hits: 2608, Late: 1153, Early: 0, Misses: 0
26-> Hits: 1222, Late: 1133, Early: 0, Misses: 2188
28-> Hits: 46, Late: 28334, Early: 0, Misses: 0
2a-> Hits: 9383, Late: 0, Early: 0, Misses: 0
2b-> Hits: 3213, Late: 0, Early: 0, Misses: 0
2d-> Hits: 2, Late: 1, Early: 0, Misses: 0
30-> Hits: 131, Late: 0, Early: 0, Misses: 0
31-> Hits: 9427, Late: 0, Early: 0, Misses: 0
33-> Hits: 4714, Late: 0, Early: 0, Misses: 0
34-> Hits: 9427, Late: 0, Early: 0, Misses: 0
35-> Hits: 0, Late: 14167, Early: 0, Misses: 0
36-> Hits: 1, Late: 14167, Early: 0, Misses: 0
37-> Hits: 7829, Late: 1184, Early: 0, Misses: 0
38-> Hits: 23594, Late: 0, Early: 0, Misses: 0
3a-> Hits: 6880, Late: 13, Early: 0, Misses: 2871
3c-> Hits: 6625, Late: 1168, Early: 0, Misses: 0
3e-> Hits: 2066, Late: 1, Early: 0, Misses: 0
40-> Hits: 28088, Late: 0, Early: 0, Misses: 0
41-> Hits: 11688, Late: 0, Early: 0, Misses: 14
42-> Hits: 7893, Late: 1093, Early: 0, Misses: 0
46-> Hits: 4898, Late: 366, Early: 0, Misses: 0
47-> Hits: 8965, Late: 0, Early: 0, Misses: 0
48-> Hits: 827, Late: 0, Early: 0, Misses: 0
49-> Hits: 9429, Late: 0, Early: 0, Misses: 0
4b-> Hits: 682, Late: 0, Early: 0, Misses: 0
4c-> Hits: 366, Late: 9060, Early: 0, Misses: 0
4d-> Hits: 9427, Late: 0, Early: 0, Misses: 0
50-> Hits: 6766, Late: 70, Early: 0, Misses: 0
51-> Hits: 17563, Late: 75, Early: 0, Misses: 12
53-> Hits: 16280, Late: 6215, Early: 0, Misses: 0
55-> Hits: 13699, Late: 0, Early: 0, Misses: 0
58-> Hits: 28736, Late: 0, Early: 0, Misses: 0
59-> Hits: 5895, Late: 12952, Early: 0, Misses: 0
5a-> Hits: 9427, Late: 0, Early: 0, Misses: 0
5c-> Hits: 482, Late: 0, Early: 0, Misses: 0
5d-> Hits: 3286, Late: 20307, Early: 0, Misses: 0
60-> Hits: 3989, Late: 14867, Early: 0, Misses: 0
62-> Hits: 17875, Late: 0, Early: 0, Misses: 0
65-> Hits: 11327, Late: 0, Early: 0, Misses: 0
66-> Hits: 9118, Late: 4, Early: 0, Misses: 1
67-> Hits: 12280, Late: 1072, Early: 0, Misses: 0
68-> Hits: 8837, Late: 0, Early: 0, Misses: 0
69-> Hits: 9427, Late: 0, Early: 0, Misses: 0
6b-> Hits: 5079, Late: 7956, Early: 0, Misses: 0
6c-> Hits: 5981, Late: 228, Early: 0, Misses: 0
6d-> Hits: 1, Late: 0, Early: 0, Misses: 0
6e-> Hits: 105, Late: 12924, Early: 0, Misses: 0
6f-> Hits: 9427, Late: 0, Early: 0, Misses: 0
70-> Hits: 2012, Late: 1, Early: 0, Misses: 0
72-> Hits: 4247, Late: 0, Early: 0, Misses: 0
73-> Hits: 9427, Late: 0, Early: 0, Misses: 0
74-> Hits: 18, Late: 1, Early: 0, Misses: 0
75-> Hits: 5640, Late: 1670, Early: 0, Misses: 0
77-> Hits: 1189, Late: 8238, Early: 0, Misses: 0
78-> Hits: 18801, Late: 0, Early: 0, Misses: 0
7b-> Hits: 4498, Late: 0, Early: 0, Misses: 38
7c-> Hits: 1515, Late: 40, Early: 0, Misses: 0
7d-> Hits: 167, Late: 1792, Early: 0, Misses: 0
7e-> Hits: 4969, Late: 0, Early: 0, Misses: 0
7f-> Hits: 1, Late: 0, Early: 0, Misses: 0
80-> Hits: 999, Late: 1814, Early: 0, Misses: 0
81-> Hits: 4512, Late: 4914, Early: 0, Misses: 0
82-> Hits: 16865, Late: 0, Early: 0, Misses: 0
83-> Hits: 12314, Late: 6539, Early: 0, Misses: 0
84-> Hits: 14013, Late: 0, Early: 0, Misses: 0
86-> Hits: 805, Late: 8621, Early: 0, Misses: 0
87-> Hits: 7659, Late: 0, Early: 0, Misses: 0
8a-> Hits: 10280, Late: 1159, Early: 0, Misses: 0
8b-> Hits: 6956, Late: 1236, Early: 0, Misses: 0
8c-> Hits: 46, Late: 0, Early: 0, Misses: 0
8e-> Hits: 891, Late: 1795, Early: 0, Misses: 0
90-> Hits: 6677, Late: 2, Early: 0, Misses: 0
91-> Hits: 7568, Late: 1797, Early: 0, Misses: 73
92-> Hits: 13407, Late: 759, Early: 0, Misses: 0
94-> Hits: 9417, Late: 0, Early: 0, Misses: 0
96-> Hits: 16528, Late: 927, Early: 0, Misses: 0
9a-> Hits: 1, Late: 0, Early: 0, Misses: 0
9b-> Hits: 18688, Late: 0, Early: 0, Misses: 165
9e-> Hits: 2239, Late: 0, Early: 0, Misses: 0
9f-> Hits: 207, Late: 4, Early: 0, Misses: 0
a0-> Hits: 9427, Late: 0, Early: 0, Misses: 0
a1-> Hits: 12582, Late: 0, Early: 0, Misses: 0
a2-> Hits: 250, Late: 0, Early: 0, Misses: 0
a3-> Hits: 1, Late: 0, Early: 0, Misses: 0
a5-> Hits: 9417, Late: 0, Early: 0, Misses: 0
a6-> Hits: 3937, Late: 14915, Early: 0, Misses: 0
a8-> Hits: 85, Late: 0, Early: 0, Misses: 0
a9-> Hits: 13536, Late: 0, Early: 0, Misses: 93
aa-> Hits: 9610, Late: 0, Early: 0, Misses: 0
ab-> Hits: 9969, Late: 2088, Early: 0, Misses: 0
ac-> Hits: 9427, Late: 0, Early: 0, Misses: 0
b1-> Hits: 3243, Late: 11477, Early: 0, Misses: 0
b2-> Hits: 9428, Late: 0, Early: 0, Misses: 0
b5-> Hits: 12561, Late: 0, Early: 0, Misses: 0
b6-> Hits: 7807, Late: 0, Early: 0, Misses: 0
b7-> Hits: 6455, Late: 1252, Early: 0, Misses: 0
b8-> Hits: 19, Late: 0, Early: 0, Misses: 0
b9-> Hits: 8738, Late: 2487, Early: 0, Misses: 0
bb-> Hits: 5262, Late: 6897, Early: 0, Misses: 0
bc-> Hits: 9110, Late: 0, Early: 0, Misses: 0
bd-> Hits: 19, Late: 0, Early: 0, Misses: 0
be-> Hits: 13076, Late: 54, Early: 0, Misses: 1242
bf-> Hits: 6484, Late: 2962, Early: 0, Misses: 0
c0-> Hits: 7529, Late: 1223, Early: 0, Misses: 0
c1-> Hits: 9419, Late: 0, Early: 0, Misses: 0
c4-> Hits: 1, Late: 0, Early: 0, Misses: 0
c5-> Hits: 1, Late: 0, Early: 0, Misses: 0
c6-> Hits: 10525, Late: 1800, Early: 0, Misses: 0
c8-> Hits: 689, Late: 2317, Early: 0, Misses: 0
c9-> Hits: 12642, Late: 6206, Early: 0, Misses: 4
ca-> Hits: 4021, Late: 0, Early: 0, Misses: 0
cb-> Hits: 9421, Late: 0, Early: 0, Misses: 0
ce-> Hits: 6472, Late: 205, Early: 0, Misses: 0
cf-> Hits: 11269, Late: 5816, Early: 0, Misses: 0
d0-> Hits: 1249, Late: 0, Early: 0, Misses: 0
d1-> Hits: 9427, Late: 0, Early: 0, Misses: 0
d3-> Hits: 5086, Late: 1163, Early: 0, Misses: 0
d4-> Hits: 15006, Late: 1529, Early: 0, Misses: 0
d5-> Hits: 8843, Late: 0, Early: 0, Misses: 0
d8-> Hits: 1, Late: 0, Early: 0, Misses: 0
d9-> Hits: 7009, Late: 0, Early: 0, Misses: 0
da-> Hits: 10255, Late: 0, Early: 0, Misses: 5
df-> Hits: 4903, Late: 0, Early: 0, Misses: 0
e1-> Hits: 11662, Late: 7191, Early: 0, Misses: 0
e2-> Hits: 16439, Late: 1192, Early: 0, Misses: 0
e5-> Hits: 69, Late: 14098, Early: 0, Misses: 0
e6-> Hits: 9427, Late: 0, Early: 0, Misses: 0
e7-> Hits: 20302, Late: 19622, Early: 0, Misses: 0
ea-> Hits: 180, Late: 1, Early: 0, Misses: 0
ec-> Hits: 17546, Late: 3115, Early: 0, Misses: 0
ef-> Hits: 8992, Late: 0, Early: 0, Misses: 0
f0-> Hits: 533, Late: 3, Early: 0, Misses: 1
f1-> Hits: 1, Late: 0, Early: 0, Misses: 0
f4-> Hits: 17792, Late: 15229, Early: 0, Misses: 0
f5-> Hits: 5062, Late: 160, Early: 0, Misses: 0
f7-> Hits: 9427, Late: 0, Early: 0, Misses: 0
f8-> Hits: 9427, Late: 0, Early: 0, Misses: 0
f9-> Hits: 348, Late: 13819, Early: 0, Misses: 0
fa-> Hits: 1208, Late: 0, Early: 0, Misses: 2
fc-> Hits: 2299, Late: 0, Early: 0, Misses: 0
fe-> Hits: 11657, Late: 1170, Early: 0, Misses: 0
ff-> Hits: 8783, Late: 0, Early: 0, Misses: 644
100-> Hits: 6258, Late: 341, Early: 0, Misses: 0
101-> Hits: 4683, Late: 0, Early: 0, Misses: 0
102-> Hits: 5629, Late: 758, Early: 0, Misses: 0
104-> Hits: 1, Late: 0, Early: 0, Misses: 0
105-> Hits: 8881, Late: 0, Early: 0, Misses: 0
107-> Hits: 12526, Late: 14957, Early: 0, Misses: 0
109-> Hits: 9429, Late: 0, Early: 0, Misses: 0
10a-> Hits: 8063, Late: 1364, Early: 0, Misses: 0
10c-> Hits: 258, Late: 22977, Early: 0, Misses: 0
10d-> Hits: 5439, Late: 356, Early: 0, Misses: 0
10e-> Hits: 14389, Late: 0, Early: 0, Misses: 0
112-> Hits: 9965, Late: 0, Early: 0, Misses: 0
113-> Hits: 246, Late: 0, Early: 0, Misses: 0
114-> Hits: 9427, Late: 0, Early: 0, Misses: 0
116-> Hits: 306, Late: 9, Early: 0, Misses: 0
117-> Hits: 9078, Late: 345, Early: 0, Misses: 0
118-> Hits: 1, Late: 0, Early: 0, Misses: 0
119-> Hits: 183, Late: 13984, Early: 0, Misses: 0
11a-> Hits: 3716, Late: 15134, Early: 0, Misses: 0
11b-> Hits: 8841, Late: 0, Early: 0, Misses: 0
11c-> Hits: 1, Late: 0, Early: 0, Misses: 0
11e-> Hits: 10595, Late: 12998, Early: 0, Misses: 0
11f-> Hits: 1935, Late: 0, Early: 0, Misses: 0
120-> Hits: 116, Late: 0, Early: 0, Misses: 0
124-> Hits: 13971, Late: 4877, Early: 0, Misses: 0
126-> Hits: 1, Late: 0, Early: 0, Misses: 0
128-> Hits: 18855, Late: 0, Early: 0, Misses: 0
129-> Hits: 8932, Late: 0, Early: 0, Misses: 0
12b-> Hits: 9427, Late: 0, Early: 0, Misses: 0
12c-> Hits: 964, Late: 34, Early: 0, Misses: 0
12d-> Hits: 18306, Late: 0, Early: 0, Misses: 0
12f-> Hits: 35, Late: 9392, Early: 0, Misses: 0
130-> Hits: 3, Late: 0, Early: 0, Misses: 0
132-> Hits: 16099, Late: 4494, Early: 0, Misses: 0
134-> Hits: 1821, Late: 674, Early: 0, Misses: 0
136-> Hits: 10240, Late: 0, Early: 0, Misses: 0
137-> Hits: 721, Late: 0, Early: 0, Misses: 0
13a-> Hits: 13720, Late: 0, Early: 0, Misses: 149
13b-> Hits: 10817, Late: 14009, Early: 0, Misses: 39
13c-> Hits: 3423, Late: 689, Early: 0, Misses: 0
13d-> Hits: 246, Late: 9180, Early: 0, Misses: 0
13e-> Hits: 7133, Late: 0, Early: 0, Misses: 0
13f-> Hits: 1, Late: 0, Early: 0, Misses: 0
140-> Hits: 125, Late: 14042, Early: 0, Misses: 0
141-> Hits: 9427, Late: 0, Early: 0, Misses: 0
142-> Hits: 13386, Late: 10205, Early: 0, Misses: 0
143-> Hits: 16229, Late: 0, Early: 0, Misses: 0
145-> Hits: 2728, Late: 6698, Early: 0, Misses: 0
147-> Hits: 10853, Late: 1068, Early: 0, Misses: 0
148-> Hits: 143, Late: 14024, Early: 0, Misses: 0
149-> Hits: 2, Late: 0, Early: 0, Misses: 0
14a-> Hits: 4297, Late: 1950, Early: 0, Misses: 0
14c-> Hits: 1645, Late: 1, Early: 0, Misses: 0
14d-> Hits: 1144, Late: 1, Early: 0, Misses: 0
14e-> Hits: 9427, Late: 0, Early: 0, Misses: 0
150-> Hits: 496, Late: 15279, Early: 0, Misses: 0
152-> Hits: 9427, Late: 0, Early: 0, Misses: 0
156-> Hits: 4241, Late: 0, Early: 0, Misses: 0
157-> Hits: 6456, Late: 1088, Early: 0, Misses: 0
158-> Hits: 84, Late: 0, Early: 0, Misses: 0
15a-> Hits: 16309, Late: 2545, Early: 0, Misses: 0
15d-> Hits: 7129, Late: 0, Early: 0, Misses: 0
15f-> Hits: 14581, Late: 0, Early: 0, Misses: 0
160-> Hits: 9428, Late: 0, Early: 0, Misses: 0
163-> Hits: 722, Late: 0, Early: 0, Misses: 0
165-> Hits: 3753, Late: 5674, Early: 0, Misses: 0
166-> Hits: 1, Late: 0, Early: 0, Misses: 0
167-> Hits: 9427, Late: 0, Early: 0, Misses: 0
168-> Hits: 173, Late: 14167, Early: 0, Misses: 0
169-> Hits: 4296, Late: 0, Early: 0, Misses: 3
16a-> Hits: 6365, Late: 852, Early: 0, Misses: 0
16b-> Hits: 9426, Late: 0, Early: 0, Misses: 0
16c-> Hits: 6144, Late: 0, Early: 0, Misses: 0
16e-> Hits: 235, Late: 3, Early: 0, Misses: 0
170-> Hits: 9413, Late: 0, Early: 0, Misses: 0
172-> Hits: 9110, Late: 1, Early: 0, Misses: 315
173-> Hits: 2876, Late: 15185, Early: 0, Misses: 0
175-> Hits: 10374, Late: 0, Early: 0, Misses: 0
176-> Hits: 0, Late: 14167, Early: 0, Misses: 0
178-> Hits: 16860, Late: 708, Early: 0, Misses: 0
17a-> Hits: 3383, Late: 6043, Early: 0, Misses: 0
17b-> Hits: 9427, Late: 0, Early: 0, Misses: 0
17c-> Hits: 1, Late: 0, Early: 0, Misses: 0
17d-> Hits: 9427, Late: 0, Early: 0, Misses: 0
17e-> Hits: 229, Late: 0, Early: 0, Misses: 0
17f-> Hits: 12523, Late: 1222, Early: 0, Misses: 0
180-> Hits: 8762, Late: 0, Early: 0, Misses: 0
181-> Hits: 14167, Late: 0, Early: 0, Misses: 0
183-> Hits: 9327, Late: 0, Early: 0, Misses: 0
184-> Hits: 183, Late: 10, Early: 0, Misses: 0
185-> Hits: 9158, Late: 1, Early: 0, Misses: 267
186-> Hits: 18588, Late: 14167, Early: 0, Misses: 0
187-> Hits: 133, Late: 9293, Early: 0, Misses: 0
189-> Hits: 3381, Late: 14167, Early: 0, Misses: 0
18d-> Hits: 18423, Late: 0, Early: 0, Misses: 0
18e-> Hits: 9201, Late: 5803, Early: 0, Misses: 0
18f-> Hits: 9427, Late: 0, Early: 0, Misses: 0
193-> Hits: 4635, Late: 1199, Early: 0, Misses: 0
194-> Hits: 14186, Late: 1186, Early: 0, Misses: 0
196-> Hits: 9655, Late: 0, Early: 0, Misses: 0
198-> Hits: 9427, Late: 14167, Early: 0, Misses: 0
199-> Hits: 2066, Late: 75, Early: 0, Misses: 0
19a-> Hits: 286, Late: 11, Early: 0, Misses: 0
19b-> Hits: 6026, Late: 15234, Early: 0, Misses: 0
19e-> Hits: 3296, Late: 6132, Early: 0, Misses: 0
19f-> Hits: 9058, Late: 0, Early: 0, Misses: 0
1a1-> Hits: 12440, Late: 0, Early: 0, Misses: 0
1a3-> Hits: 2238, Late: 1865, Early: 0, Misses: 0
1a5-> Hits: 9427, Late: 0, Early: 0, Misses: 0
1a6-> Hits: 1, Late: 0, Early: 0, Misses: 0
1a7-> Hits: 9427, Late: 0, Early: 0, Misses: 0
1a8-> Hits: 6623, Late: 2804, Early: 0, Misses: 0
1aa-> Hits: 0, Late: 14167, Early: 0, Misses: 0
1ab-> Hits: 7454, Late: 1973, Early: 0, Misses: 0
1ad-> Hits: 1, Late: 0, Early: 0, Misses: 0
1b0-> Hits: 656, Late: 4, Early: 0, Misses: 0
1b1-> Hits: 510, Late: 8911, Early: 0, Misses: 0
1b3-> Hits: 1115, Late: 0, Early: 0, Misses: 0
1b4-> Hits: 1, Late: 0, Early: 0, Misses: 0
1b6-> Hits: 22487, Late: 0, Early: 0, Misses: 0
1b7-> Hits: 9419, Late: 0, Early: 0, Misses: 0
1b8-> Hits: 4781, Late: 115, Early: 0, Misses: 0
1b9-> Hits: 9017, Late: 0, Early: 0, Misses: 0
1bc-> Hits: 12015, Late: 6, Early: 0, Misses: 104
1bd-> Hits: 93, Late: 0, Early: 0, Misses: 0
1be-> Hits: 9863, Late: 14167, Early: 0, Misses: 0
1c0-> Hits: 1, Late: 0, Early: 0, Misses: 0
1c3-> Hits: 0, Late: 9426, Early: 0, Misses: 0
1c4-> Hits: 9427, Late: 0, Early: 0, Misses: 0
1c6-> Hits: 13601, Late: 1240, Early: 0, Misses: 0
1c7-> Hits: 2, Late: 0, Early: 0, Misses: 0
1c8-> Hits: 9489, Late: 1348, Early: 0, Misses: 0
1c9-> Hits: 1, Late: 0, Early: 0, Misses: 0
1ca-> Hits: 14456, Late: 0, Early: 0, Misses: 0
1cb-> Hits: 7348, Late: 15307, Early: 0, Misses: 0
1cc-> Hits: 5320, Late: 14167, Early: 0, Misses: 0
1ce-> Hits: 10460, Late: 0, Early: 0, Misses: 0
1d0-> Hits: 20, Late: 9405, Early: 0, Misses: 0
1d3-> Hits: 9427, Late: 0, Early: 0, Misses: 0
1d7-> Hits: 52, Late: 0, Early: 0, Misses: 0
1da-> Hits: 8663, Late: 14927, Early: 0, Misses: 0
1db-> Hits: 9428, Late: 0, Early: 0, Misses: 0
1dc-> Hits: 559, Late: 25, Early: 0, Misses: 0
1de-> Hits: 8175, Late: 0, Early: 0, Misses: 0
1e0-> Hits: 11929, Late: 9226, Early: 0, Misses: 0
1e1-> Hits: 8244, Late: 1182, Early: 0, Misses: 0
1e4-> Hits: 6591, Late: 1164, Early: 0, Misses: 0
1e5-> Hits: 9427, Late: 0, Early: 0, Misses: 0
1e7-> Hits: 5820, Late: 0, Early: 0, Misses: 0
1e8-> Hits: 0, Late: 9426, Early: 0, Misses: 0
1ea-> Hits: 5482, Late: 0, Early: 0, Misses: 0
1eb-> Hits: 13688, Late: 0, Early: 0, Misses: 0
1ec-> Hits: 1, Late: 0, Early: 0, Misses: 0
1ed-> Hits: 5280, Late: 0, Early: 0, Misses: 0
1ee-> Hits: 21, Late: 9405, Early: 0, Misses: 0
1ef-> Hits: 1, Late: 0, Early: 0, Misses: 0
1f0-> Hits: 6548, Late: 2880, Early: 0, Misses: 0
1f1-> Hits: 4725, Late: 0, Early: 0, Misses: 0
1f2-> Hits: 19225, Late: 2851, Early: 0, Misses: 0
1f3-> Hits: 1, Late: 14167, Early: 0, Misses: 0
1f5-> Hits: 1, Late: 0, Early: 0, Misses: 0
1f6-> Hits: 7607, Late: 0, Early: 0, Misses: 0
1f7-> Hits: 6995, Late: 9158, Early: 0, Misses: 0
1f9-> Hits: 14167, Late: 0, Early: 0, Misses: 0
1fc-> Hits: 4559, Late: 1162, Early: 0, Misses: 0
1fe-> Hits: 5605, Late: 14168, Early: 0, Misses: 0
1ff-> Hits: 5546, Late: 3, Early: 0, Misses: 0
201-> Hits: 18676, Late: 6001, Early: 0, Misses: 0
202-> Hits: 2, Late: 0, Early: 0, Misses: 0
203-> Hits: 9445, Late: 1, Early: 0, Misses: 0
204-> Hits: 67, Late: 9361, Early: 0, Misses: 0
205-> Hits: 7591, Late: 0, Early: 0, Misses: 0
206-> Hits: 2, Late: 0, Early: 0, Misses: 0
207-> Hits: 12919, Late: 0, Early: 0, Misses: 102
208-> Hits: 86, Late: 0, Early: 0, Misses: 0
209-> Hits: 3739, Late: 2537, Early: 0, Misses: 0
20a-> Hits: 9429, Late: 0, Early: 0, Misses: 0
20b-> Hits: 9429, Late: 0, Early: 0, Misses: 0
20c-> Hits: 146, Late: 3498, Early: 0, Misses: 0
20e-> Hits: 1, Late: 0, Early: 0, Misses: 0
20f-> Hits: 3179, Late: 359, Early: 0, Misses: 0
211-> Hits: 3250, Late: 0, Early: 0, Misses: 0
213-> Hits: 9599, Late: 1792, Early: 0, Misses: 0
214-> Hits: 1323, Late: 0, Early: 0, Misses: 0
215-> Hits: 18127, Late: 620, Early: 0, Misses: 28
216-> Hits: 1, Late: 0, Early: 0, Misses: 0
218-> Hits: 1, Late: 0, Early: 0, Misses: 0
21a-> Hits: 482, Late: 8944, Early: 0, Misses: 0
21c-> Hits: 8716, Late: 0, Early: 0, Misses: 0
21d-> Hits: 6548, Late: 1203, Early: 0, Misses: 0
21e-> Hits: 929, Late: 1805, Early: 0, Misses: 0
21f-> Hits: 12518, Late: 0, Early: 0, Misses: 0
221-> Hits: 9427, Late: 0, Early: 0, Misses: 0
224-> Hits: 7172, Late: 1805, Early: 0, Misses: 0
227-> Hits: 3585, Late: 5841, Early: 0, Misses: 0
229-> Hits: 7023, Late: 978, Early: 0, Misses: 0
22a-> Hits: 1808, Late: 1, Early: 0, Misses: 0
22b-> Hits: 1084, Late: 8437, Early: 0, Misses: 0
22e-> Hits: 18853, Late: 0, Early: 0, Misses: 0
22f-> Hits: 9885, Late: 1797, Early: 0, Misses: 0
230-> Hits: 15534, Late: 1, Early: 0, Misses: 388
234-> Hits: 22865, Late: 728, Early: 0, Misses: 0
235-> Hits: 368, Late: 2241, Early: 0, Misses: 0
239-> Hits: 13248, Late: 4, Early: 0, Misses: 30
23a-> Hits: 9426, Late: 0, Early: 0, Misses: 0
23d-> Hits: 1, Late: 0, Early: 0, Misses: 0
23e-> Hits: 3600, Late: 0, Early: 0, Misses: 0
240-> Hits: 6740, Late: 302, Early: 0, Misses: 0
241-> Hits: 989, Late: 0, Early: 0, Misses: 1
242-> Hits: 1786, Late: 1097, Early: 0, Misses: 0
243-> Hits: 1095, Late: 8332, Early: 0, Misses: 0
244-> Hits: 2162, Late: 83, Early: 0, Misses: 0
245-> Hits: 9426, Late: 0, Early: 0, Misses: 0
247-> Hits: 13648, Late: 510, Early: 0, Misses: 0
248-> Hits: 10238, Late: 0, Early: 0, Misses: 0
24a-> Hits: 7945, Late: 0, Early: 0, Misses: 0
24b-> Hits: 203, Late: 0, Early: 0, Misses: 0
24d-> Hits: 4492, Late: 4934, Early: 0, Misses: 0
24f-> Hits: 12050, Late: 1819, Early: 0, Misses: 1
250-> Hits: 1, Late: 0, Early: 0, Misses: 0
251-> Hits: 9427, Late: 0, Early: 0, Misses: 0
253-> Hits: 9422, Late: 0, Early: 0, Misses: 0
254-> Hits: 9427, Late: 0, Early: 0, Misses: 0
255-> Hits: 1, Late: 0, Early: 0, Misses: 0
256-> Hits: 1239, Late: 8187, Early: 0, Misses: 0
257-> Hits: 9419, Late: 0, Early: 0, Misses: 8
258-> Hits: 9426, Late: 0, Early: 0, Misses: 0
259-> Hits: 1144, Late: 8935, Early: 0, Misses: 0
25a-> Hits: 280, Late: 0, Early: 0, Misses: 0
25c-> Hits: 1066, Late: 1795, Early: 0, Misses: 0
25d-> Hits: 18254, Late: 0, Early: 0, Misses: 0
25f-> Hits: 3701, Late: 1183, Early: 0, Misses: 0
260-> Hits: 6804, Late: 0, Early: 0, Misses: 0
262-> Hits: 4264, Late: 969, Early: 0, Misses: 0
263-> Hits: 1, Late: 0, Early: 0, Misses: 0
264-> Hits: 406, Late: 9020, Early: 0, Misses: 0
265-> Hits: 1682, Late: 0, Early: 0, Misses: 2
266-> Hits: 9714, Late: 7367, Early: 0, Misses: 0
267-> Hits: 5054, Late: 1177, Early: 0, Misses: 0
268-> Hits: 1, Late: 0, Early: 0, Misses: 0
269-> Hits: 4338, Late: 1168, Early: 0, Misses: 0
26a-> Hits: 19614, Late: 0, Early: 0, Misses: 0
26d-> Hits: 9412, Late: 0, Early: 0, Misses: 15
26e-> Hits: 7202, Late: 2200, Early: 0, Misses: 0
26f-> Hits: 4671, Late: 0, Early: 0, Misses: 0
270-> Hits: 9328, Late: 0, Early: 0, Misses: 0
273-> Hits: 11521, Late: 37, Early: 0, Misses: 0
274-> Hits: 9426, Late: 0, Early: 0, Misses: 0
277-> Hits: 16899, Late: 9138, Early: 0, Misses: 0
27b-> Hits: 9486, Late: 14102, Early: 0, Misses: 13
27c-> Hits: 794, Late: 0, Early: 0, Misses: 0
27d-> Hits: 3481, Late: 0, Early: 0, Misses: 0
282-> Hits: 9427, Late: 0, Early: 0, Misses: 0
283-> Hits: 24111, Late: 121, Early: 0, Misses: 15
284-> Hits: 1851, Late: 7564, Early: 0, Misses: 0
285-> Hits: 6202, Late: 14180, Early: 0, Misses: 0
289-> Hits: 9054, Late: 0, Early: 0, Misses: 0
28a-> Hits: 42, Late: 14126, Early: 0, Misses: 0
28b-> Hits: 2020, Late: 0, Early: 0, Misses: 0
28e-> Hits: 5775, Late: 0, Early: 0, Misses: 0
28f-> Hits: 8962, Late: 0, Early: 0, Misses: 0
290-> Hits: 12747, Late: 1824, Early: 0, Misses: 0
291-> Hits: 9399, Late: 0, Early: 0, Misses: 11
292-> Hits: 6312, Late: 0, Early: 0, Misses: 0
293-> Hits: 6489, Late: 438, Early: 0, Misses: 0
294-> Hits: 265, Late: 13902, Early: 0, Misses: 0
296-> Hits: 6643, Late: 666, Early: 0, Misses: 0
298-> Hits: 2904, Late: 6523, Early: 0, Misses: 0
29a-> Hits: 9402, Late: 0, Early: 0, Misses: 0
29c-> Hits: 7498, Late: 1142, Early: 0, Misses: 0
29d-> Hits: 260, Late: 13908, Early: 0, Misses: 0
29e-> Hits: 3736, Late: 1209, Early: 0, Misses: 0
29f-> Hits: 52, Late: 0, Early: 0, Misses: 0
2a5-> Hits: 12133, Late: 0, Early: 0, Misses: 0
2a9-> Hits: 12339, Late: 33, Early: 0, Misses: 1794
2aa-> Hits: 2863, Late: 11304, Early: 0, Misses: 0
2ab-> Hits: 8888, Late: 456, Early: 0, Misses: 0
2ac-> Hits: 13545, Late: 1169, Early: 0, Misses: 0
2ad-> Hits: 19636, Late: 6824, Early: 0, Misses: 8
2af-> Hits: 346, Late: 13821, Early: 0, Misses: 0
2b0-> Hits: 1, Late: 0, Early: 0, Misses: 0
2b2-> Hits: 25900, Late: 1089, Early: 0, Misses: 0
2b3-> Hits: 13611, Late: 0, Early: 0, Misses: 0
2b6-> Hits: 12924, Late: 0, Early: 0, Misses: 6
2b8-> Hits: 3894, Late: 1217, Early: 0, Misses: 0
2b9-> Hits: 0, Late: 9426, Early: 0, Misses: 0
2ba-> Hits: 4290, Late: 1070, Early: 0, Misses: 0
2bb-> Hits: 1, Late: 0, Early: 0, Misses: 0
2bc-> Hits: 2462, Late: 11705, Early: 0, Misses: 0
2bd-> Hits: 2168, Late: 0, Early: 0, Misses: 0
2be-> Hits: 9406, Late: 0, Early: 0, Misses: 21
2bf-> Hits: 9928, Late: 49, Early: 0, Misses: 0
2c3-> Hits: 26, Late: 1, Early: 0, Misses: 0
2c4-> Hits: 2265, Late: 9774, Early: 0, Misses: 0
2c5-> Hits: 20822, Late: 7432, Early: 0, Misses: 26
2c8-> Hits: 119, Late: 0, Early: 0, Misses: 0
2c9-> Hits: 3962, Late: 5464, Early: 0, Misses: 0
2ca-> Hits: 9427, Late: 0, Early: 0, Misses: 0
2cb-> Hits: 827, Late: 0, Early: 0, Misses: 0
2cd-> Hits: 9382, Late: 30, Early: 0, Misses: 15
2cf-> Hits: 5243, Late: 1190, Early: 0, Misses: 0
2d0-> Hits: 3841, Late: 5585, Early: 0, Misses: 0
2d1-> Hits: 120, Late: 14047, Early: 0, Misses: 0
2d2-> Hits: 6752, Late: 1547, Early: 0, Misses: 0
2d5-> Hits: 12440, Late: 19, Early: 0, Misses: 1707
2d6-> Hits: 5471, Late: 0, Early: 0, Misses: 0
2d7-> Hits: 14953, Late: 688, Early: 0, Misses: 0
2da-> Hits: 9540, Late: 0, Early: 0, Misses: 0
2db-> Hits: 4455, Late: 5028, Early: 0, Misses: 0
2dd-> Hits: 9419, Late: 0, Early: 0, Misses: 0
2de-> Hits: 325, Late: 28009, Early: 0, Misses: 0
2e0-> Hits: 1045, Late: 0, Early: 0, Misses: 0
2e2-> Hits: 1141, Late: 8285, Early: 0, Misses: 0
2e3-> Hits: 9427, Late: 0, Early: 0, Misses: 0
2e5-> Hits: 2585, Late: 847, Early: 0, Misses: 0
2e6-> Hits: 9393, Late: 9412, Early: 0, Misses: 0
2e7-> Hits: 7119, Late: 0, Early: 0, Misses: 0
2ea-> Hits: 3435, Late: 0, Early: 0, Misses: 0
2eb-> Hits: 5950, Late: 2408, Early: 0, Misses: 0
2ec-> Hits: 3057, Late: 6370, Early: 0, Misses: 0
2ee-> Hits: 9439, Late: 0, Early: 0, Misses: 0
2ef-> Hits: 9565, Late: 14029, Early: 0, Misses: 0
2f2-> Hits: 3017, Late: 6409, Early: 0, Misses: 0
2f3-> Hits: 9335, Late: 0, Early: 0, Misses: 0
2f4-> Hits: 2, Late: 0, Early: 0, Misses: 0
2f5-> Hits: 9438, Late: 0, Early: 0, Misses: 0
2f6-> Hits: 1429, Late: 4, Early: 0, Misses: 0
2f7-> Hits: 4508, Late: 1792, Early: 0, Misses: 0
2f8-> Hits: 2, Late: 0, Early: 0, Misses: 0
2f9-> Hits: 341, Late: 0, Early: 0, Misses: 0
2fd-> Hits: 1481, Late: 0, Early: 0, Misses: 0
2fe-> Hits: 4616, Late: 14167, Early: 0, Misses: 0
301-> Hits: 12958, Late: 1203, Early: 0, Misses: 0
303-> Hits: 1974, Late: 0, Early: 0, Misses: 0
305-> Hits: 4091, Late: 5335, Early: 0, Misses: 0
308-> Hits: 143, Late: 9284, Early: 0, Misses: 0
30a-> Hits: 15858, Late: 949, Early: 0, Misses: 0
30b-> Hits: 6739, Late: 0, Early: 0, Misses: 0
30c-> Hits: 0, Late: 14167, Early: 0, Misses: 0
30d-> Hits: 6140, Late: 1172, Early: 0, Misses: 0
30f-> Hits: 0, Late: 14167, Early: 0, Misses: 0
311-> Hits: 4457, Late: 0, Early: 0, Misses: 0
313-> Hits: 4102, Late: 0, Early: 0, Misses: 0
316-> Hits: 3122, Late: 6305, Early: 0, Misses: 0
317-> Hits: 25261, Late: 89, Early: 0, Misses: 0
318-> Hits: 9427, Late: 0, Early: 0, Misses: 0
31b-> Hits: 3200, Late: 10411, Early: 0, Misses: 0
31d-> Hits: 0, Late: 14167, Early: 0, Misses: 0
31f-> Hits: 0, Late: 14167, Early: 0, Misses: 0
320-> Hits: 9418, Late: 0, Early: 0, Misses: 0
321-> Hits: 3956, Late: 0, Early: 0, Misses: 0
324-> Hits: 9096, Late: 0, Early: 0, Misses: 0
325-> Hits: 9427, Late: 0, Early: 0, Misses: 0
326-> Hits: 3624, Late: 5802, Early: 0, Misses: 0
328-> Hits: 4072, Late: 838, Early: 0, Misses: 0
32a-> Hits: 7743, Late: 1, Early: 0, Misses: 0
32b-> Hits: 2688, Late: 2040, Early: 0, Misses: 0
32d-> Hits: 310, Late: 0, Early: 0, Misses: 8
32f-> Hits: 1, Late: 14167, Early: 0, Misses: 0
331-> Hits: 258, Late: 14167, Early: 0, Misses: 0
332-> Hits: 4326, Late: 0, Early: 0, Misses: 0
333-> Hits: 13463, Late: 0, Early: 0, Misses: 0
334-> Hits: 1, Late: 0, Early: 0, Misses: 0
337-> Hits: 9428, Late: 0, Early: 0, Misses: 0
338-> Hits: 14, Late: 0, Early: 0, Misses: 0
339-> Hits: 3565, Late: 5861, Early: 0, Misses: 0
33a-> Hits: 12614, Late: 6239, Early: 0, Misses: 0
33d-> Hits: 9427, Late: 0, Early: 0, Misses: 0
33e-> Hits: 6238, Late: 1190, Early: 0, Misses: 0
33f-> Hits: 1589, Late: 1683, Early: 0, Misses: 0
341-> Hits: 0, Late: 14167, Early: 0, Misses: 0
342-> Hits: 1, Late: 0, Early: 0, Misses: 0
343-> Hits: 20238, Late: 425, Early: 0, Misses: 2930
344-> Hits: 9200, Late: 0, Early: 0, Misses: 0
345-> Hits: 14709, Late: 0, Early: 0, Misses: 0
348-> Hits: 2051, Late: 7375, Early: 0, Misses: 0
34a-> Hits: 1, Late: 0, Early: 0, Misses: 0
34c-> Hits: 7491, Late: 0, Early: 0, Misses: 1935
34d-> Hits: 9424, Late: 0, Early: 0, Misses: 0
34f-> Hits: 9427, Late: 0, Early: 0, Misses: 0
351-> Hits: 7596, Late: 0, Early: 0, Misses: 0
354-> Hits: 0, Late: 14167, Early: 0, Misses: 0
355-> Hits: 9426, Late: 0, Early: 0, Misses: 0
356-> Hits: 17959, Late: 1248, Early: 0, Misses: 0
357-> Hits: 13267, Late: 0, Early: 0, Misses: 0
358-> Hits: 9427, Late: 0, Early: 0, Misses: 0
359-> Hits: 2870, Late: 12, Early: 0, Misses: 372
35d-> Hits: 9426, Late: 0, Early: 0, Misses: 0
35f-> Hits: 9427, Late: 0, Early: 0, Misses: 0
361-> Hits: 0, Late: 14167, Early: 0, Misses: 0
364-> Hits: 7013, Late: 0, Early: 0, Misses: 0
366-> Hits: 0, Late: 14167, Early: 0, Misses: 0
367-> Hits: 9427, Late: 0, Early: 0, Misses: 0
368-> Hits: 8632, Late: 0, Early: 0, Misses: 0
369-> Hits: 7661, Late: 1187, Early: 0, Misses: 0
36f-> Hits: 12377, Late: 25, Early: 0, Misses: 0
370-> Hits: 2353, Late: 0, Early: 0, Misses: 0
371-> Hits: 1834, Late: 0, Early: 0, Misses: 0
374-> Hits: 4889, Late: 14167, Early: 0, Misses: 0
376-> Hits: 14166, Late: 0, Early: 0, Misses: 0
378-> Hits: 4298, Late: 296, Early: 0, Misses: 0
37a-> Hits: 9427, Late: 0, Early: 0, Misses: 0
37b-> Hits: 9415, Late: 1, Early: 0, Misses: 0
37d-> Hits: 1280, Late: 0, Early: 0, Misses: 0
380-> Hits: 9427, Late: 0, Early: 0, Misses: 0
381-> Hits: 12033, Late: 15, Early: 0, Misses: 2119
383-> Hits: 0, Late: 1, Early: 0, Misses: 0
384-> Hits: 1, Late: 0, Early: 0, Misses: 0
385-> Hits: 23898, Late: 6536, Early: 0, Misses: 738
386-> Hits: 1, Late: 0, Early: 0, Misses: 0
387-> Hits: 6020, Late: 1407, Early: 0, Misses: 0
388-> Hits: 1365, Late: 9427, Early: 0, Misses: 0
389-> Hits: 18306, Late: 14167, Early: 0, Misses: 0
38a-> Hits: 2059, Late: 0, Early: 0, Misses: 0
38c-> Hits: 1, Late: 0, Early: 0, Misses: 0
38e-> Hits: 312, Late: 9115, Early: 0, Misses: 0
38f-> Hits: 3475, Late: 5951, Early: 0, Misses: 0
390-> Hits: 1, Late: 0, Early: 0, Misses: 0
391-> Hits: 2654, Late: 0, Early: 0, Misses: 0
393-> Hits: 16520, Late: 0, Early: 0, Misses: 0
394-> Hits: 9427, Late: 0, Early: 0, Misses: 0
396-> Hits: 18854, Late: 0, Early: 0, Misses: 0
397-> Hits: 125, Late: 3499, Early: 0, Misses: 0
398-> Hits: 9073, Late: 14167, Early: 0, Misses: 0
39b-> Hits: 1192, Late: 6, Early: 0, Misses: 0
39d-> Hits: 4956, Late: 4470, Early: 0, Misses: 0
39f-> Hits: 9427, Late: 0, Early: 0, Misses: 0
3a2-> Hits: 1296, Late: 9306, Early: 0, Misses: 0
3a3-> Hits: 6932, Late: 1171, Early: 0, Misses: 0
3a5-> Hits: 9400, Late: 0, Early: 0, Misses: 0
3a6-> Hits: 181, Late: 3505, Early: 0, Misses: 0
3a7-> Hits: 12588, Late: 9303, Early: 0, Misses: 0
3a9-> Hits: 8703, Late: 1792, Early: 0, Misses: 0
3aa-> Hits: 1, Late: 0, Early: 0, Misses: 0
3ae-> Hits: 36, Late: 1, Early: 0, Misses: 0
3af-> Hits: 1, Late: 0, Early: 0, Misses: 0
3b0-> Hits: 23093, Late: 0, Early: 0, Misses: 0
3b1-> Hits: 13267, Late: 1105, Early: 0, Misses: 0
3b2-> Hits: 0, Late: 1, Early: 0, Misses: 0
3b5-> Hits: 1, Late: 0, Early: 0, Misses: 0
3b6-> Hits: 18579, Late: 0, Early: 0, Misses: 0
3b8-> Hits: 671, Late: 1800, Early: 0, Misses: 0
3b9-> Hits: 5058, Late: 6287, Early: 0, Misses: 0
3ba-> Hits: 693, Late: 1809, Early: 0, Misses: 0
3bb-> Hits: 1039, Late: 8387, Early: 0, Misses: 0
3be-> Hits: 5889, Late: 1487, Early: 0, Misses: 0
3bf-> Hits: 18085, Late: 0, Early: 0, Misses: 0
3c0-> Hits: 2530, Late: 7211, Early: 0, Misses: 0
3c1-> Hits: 1, Late: 0, Early: 0, Misses: 0
3c2-> Hits: 7377, Late: 0, Early: 0, Misses: 0
3c5-> Hits: 20, Late: 0, Early: 0, Misses: 0
3c6-> Hits: 0, Late: 9426, Early: 0, Misses: 0
3c7-> Hits: 3733, Late: 54, Early: 0, Misses: 0
3c8-> Hits: 3924, Late: 5503, Early: 0, Misses: 0
3c9-> Hits: 807, Late: 1801, Early: 0, Misses: 0
3cb-> Hits: 235, Late: 8, Early: 0, Misses: 0
3cc-> Hits: 4443, Late: 1175, Early: 0, Misses: 0
3cf-> Hits: 0, Late: 1, Early: 0, Misses: 0
3d1-> Hits: 19727, Late: 0, Early: 0, Misses: 0
3d2-> Hits: 5366, Late: 0, Early: 0, Misses: 0
3d3-> Hits: 14848, Late: 0, Early: 0, Misses: 0
3d4-> Hits: 345, Late: 0, Early: 0, Misses: 0
3d6-> Hits: 2065, Late: 1155, Early: 0, Misses: 0
3d7-> Hits: 34, Late: 2, Early: 0, Misses: 0
3d8-> Hits: 8582, Late: 764, Early: 0, Misses: 0
3d9-> Hits: 5055, Late: 5185, Early: 0, Misses: 0
3da-> Hits: 9973, Late: 6, Early: 0, Misses: 0
3db-> Hits: 15120, Late: 266, Early: 0, Misses: 0
3dd-> Hits: 10136, Late: 1, Early: 0, Misses: 36
3de-> Hits: 35, Late: 1, Early: 0, Misses: 0
3df-> Hits: 3362, Late: 874, Early: 0, Misses: 0
3e1-> Hits: 7344, Late: 0, Early: 0, Misses: 0
3e4-> Hits: 9428, Late: 0, Early: 0, Misses: 0
3e5-> Hits: 1747, Late: 1798, Early: 0, Misses: 0
3e6-> Hits: 3937, Late: 8168, Early: 0, Misses: 0
3ea-> Hits: 6607, Late: 0, Early: 0, Misses: 0
3eb-> Hits: 384, Late: 0, Early: 0, Misses: 0
3ec-> Hits: 8067, Late: 1183, Early: 0, Misses: 0
3ee-> Hits: 18854, Late: 0, Early: 0, Misses: 0
3ef-> Hits: 4803, Late: 4623, Early: 0, Misses: 0
3f0-> Hits: 2959, Late: 20634, Early: 0, Misses: 0
3f1-> Hits: 8700, Late: 713, Early: 0, Misses: 0
3f2-> Hits: 1201, Late: 1797, Early: 0, Misses: 0
3f3-> Hits: 2145, Late: 22, Early: 0, Misses: 0
3f4-> Hits: 7764, Late: 1217, Early: 0, Misses: 0
3f8-> Hits: 1262, Late: 1957, Early: 0, Misses: 0
3f9-> Hits: 14436, Late: 2279, Early: 0, Misses: 1
3fd-> Hits: 8599, Late: 0, Early: 0, Misses: 0
3fe-> Hits: 11018, Late: 0, Early: 0, Misses: 0
400-> Hits: 2562, Late: 6864, Early: 0, Misses: 0
403-> Hits: 4171, Late: 5255, Early: 0, Misses: 0
404-> Hits: 9427, Late: 0, Early: 0, Misses: 0
405-> Hits: 1110, Late: 1807, Early: 0, Misses: 0
406-> Hits: 1, Late: 0, Early: 0, Misses: 0
407-> Hits: 11723, Late: 3498, Early: 0, Misses: 0
408-> Hits: 4494, Late: 1504, Early: 0, Misses: 0
409-> Hits: 4922, Late: 5, Early: 0, Misses: 148
40a-> Hits: 9429, Late: 0, Early: 0, Misses: 0
40b-> Hits: 1, Late: 0, Early: 0, Misses: 0
40c-> Hits: 6926, Late: 9592, Early: 0, Misses: 0
411-> Hits: 25019, Late: 16035, Early: 0, Misses: 0
413-> Hits: 3805, Late: 0, Early: 0, Misses: 0
414-> Hits: 2, Late: 0, Early: 0, Misses: 0
417-> Hits: 3622, Late: 0, Early: 0, Misses: 0
418-> Hits: 18856, Late: 0, Early: 0, Misses: 0
419-> Hits: 146, Late: 3584, Early: 0, Misses: 0
41b-> Hits: 3385, Late: 6041, Early: 0, Misses: 0
41d-> Hits: 9265, Late: 0, Early: 0, Misses: 0
41e-> Hits: 105, Late: 0, Early: 0, Misses: 0
41f-> Hits: 13966, Late: 9081, Early: 0, Misses: 0
420-> Hits: 9517, Late: 16994, Early: 0, Misses: 0
421-> Hits: 9427, Late: 0, Early: 0, Misses: 0
424-> Hits: 9437, Late: 14155, Early: 0, Misses: 0
425-> Hits: 1293, Late: 0, Early: 0, Misses: 0
428-> Hits: 14174, Late: 5, Early: 0, Misses: 0
42b-> Hits: 1, Late: 0, Early: 0, Misses: 0
42c-> Hits: 3426, Late: 805, Early: 0, Misses: 0
42e-> Hits: 14410, Late: 966, Early: 0, Misses: 0
42f-> Hits: 11045, Late: 0, Early: 0, Misses: 0
431-> Hits: 13501, Late: 0, Early: 0, Misses: 0
432-> Hits: 6488, Late: 0, Early: 0, Misses: 0
433-> Hits: 9651, Late: 28109, Early: 0, Misses: 0
435-> Hits: 7267, Late: 7053, Early: 0, Misses: 0
437-> Hits: 9427, Late: 0, Early: 0, Misses: 0
439-> Hits: 5995, Late: 65, Early: 0, Misses: 0
43a-> Hits: 6498, Late: 668, Early: 0, Misses: 0
43b-> Hits: 10521, Late: 2997, Early: 0, Misses: 0
43c-> Hits: 9427, Late: 0, Early: 0, Misses: 0
43e-> Hits: 9145, Late: 0, Early: 0, Misses: 0
43f-> Hits: 3823, Late: 0, Early: 0, Misses: 0
440-> Hits: 9427, Late: 9363, Early: 0, Misses: 0
443-> Hits: 8050, Late: 0, Early: 0, Misses: 0
445-> Hits: 2866, Late: 20727, Early: 0, Misses: 0
446-> Hits: 13194, Late: 14015, Early: 0, Misses: 0
447-> Hits: 6772, Late: 644, Early: 0, Misses: 0
449-> Hits: 6682, Late: 0, Early: 0, Misses: 0
44b-> Hits: 6255, Late: 0, Early: 0, Misses: 0
44c-> Hits: 7815, Late: 985, Early: 0, Misses: 0
44e-> Hits: 24, Late: 9400, Early: 0, Misses: 0
44f-> Hits: 1963, Late: 24, Early: 0, Misses: 0
450-> Hits: 4256, Late: 1238, Early: 0, Misses: 0
452-> Hits: 9419, Late: 0, Early: 0, Misses: 0
453-> Hits: 9601, Late: 1794, Early: 0, Misses: 0
455-> Hits: 6868, Late: 0, Early: 0, Misses: 0
456-> Hits: 6874, Late: 0, Early: 0, Misses: 0
457-> Hits: 1671, Late: 0, Early: 0, Misses: 0
458-> Hits: 422, Late: 13871, Early: 0, Misses: 0
45a-> Hits: 1, Late: 0, Early: 0, Misses: 0
45c-> Hits: 9277, Late: 65, Early: 0, Misses: 0
45d-> Hits: 1620, Late: 9, Early: 0, Misses: 0
45e-> Hits: 2, Late: 9425, Early: 0, Misses: 0
460-> Hits: 226, Late: 0, Early: 0, Misses: 0
462-> Hits: 8706, Late: 1163, Early: 0, Misses: 0
463-> Hits: 17694, Late: 1159, Early: 0, Misses: 0
465-> Hits: 13900, Late: 266, Early: 0, Misses: 0
467-> Hits: 50, Late: 14117, Early: 0, Misses: 0
469-> Hits: 2643, Late: 0, Early: 0, Misses: 0
46b-> Hits: 287, Late: 0, Early: 0, Misses: 0
46c-> Hits: 25, Late: 9401, Early: 0, Misses: 0
46d-> Hits: 1, Late: 0, Early: 0, Misses: 0
46e-> Hits: 7011, Late: 0, Early: 0, Misses: 0
471-> Hits: 3557, Late: 333, Early: 0, Misses: 0
474-> Hits: 7322, Late: 14057, Early: 0, Misses: 0
476-> Hits: 1284, Late: 0, Early: 0, Misses: 0
477-> Hits: 9075, Late: 9145, Early: 0, Misses: 0
47a-> Hits: 12933, Late: 457, Early: 0, Misses: 0
47b-> Hits: 2020, Late: 12, Early: 0, Misses: 0
47d-> Hits: 99, Late: 14068, Early: 0, Misses: 0
47e-> Hits: 3380, Late: 6047, Early: 0, Misses: 0
480-> Hits: 113, Late: 9314, Early: 0, Misses: 0
481-> Hits: 36, Late: 0, Early: 0, Misses: 0
482-> Hits: 767, Late: 2307, Early: 0, Misses: 0
483-> Hits: 12594, Late: 0, Early: 0, Misses: 0
485-> Hits: 2268, Late: 934, Early: 0, Misses: 0
486-> Hits: 324, Late: 0, Early: 0, Misses: 0
488-> Hits: 3026, Late: 6400, Early: 0, Misses: 0
48c-> Hits: 9445, Late: 0, Early: 0, Misses: 0
48e-> Hits: 259, Late: 13908, Early: 0, Misses: 0
48f-> Hits: 2570, Late: 0, Early: 0, Misses: 0
490-> Hits: 7, Late: 0, Early: 0, Misses: 0
491-> Hits: 16926, Late: 6, Early: 0, Misses: 0
492-> Hits: 7, Late: 0, Early: 0, Misses: 0
493-> Hits: 22048, Late: 1458, Early: 0, Misses: 2
494-> Hits: 7, Late: 14167, Early: 0, Misses: 0
496-> Hits: 5234, Late: 4199, Early: 0, Misses: 0
497-> Hits: 7, Late: 0, Early: 0, Misses: 0
498-> Hits: 101, Late: 14066, Early: 0, Misses: 0
49b-> Hits: 1081, Late: 0, Early: 0, Misses: 0
49d-> Hits: 9452, Late: 0, Early: 0, Misses: 0
49e-> Hits: 2989, Late: 1233, Early: 0, Misses: 0
49f-> Hits: 36, Late: 0, Early: 0, Misses: 0
4a0-> Hits: 3770, Late: 441, Early: 0, Misses: 0
4a1-> Hits: 36, Late: 0, Early: 0, Misses: 0
4a2-> Hits: 0, Late: 14167, Early: 0, Misses: 0
4a3-> Hits: 37, Late: 0, Early: 0, Misses: 0
4a5-> Hits: 29062, Late: 1092, Early: 0, Misses: 19
4a7-> Hits: 720, Late: 12, Early: 0, Misses: 0
4a9-> Hits: 6521, Late: 0, Early: 0, Misses: 0
4aa-> Hits: 9426, Late: 0, Early: 0, Misses: 0
4ad-> Hits: 18, Late: 0, Early: 0, Misses: 0
4ae-> Hits: 22404, Late: 14145, Early: 0, Misses: 1210
4af-> Hits: 9187, Late: 0, Early: 0, Misses: 0
4b1-> Hits: 12752, Late: 20268, Early: 0, Misses: 0
4b2-> Hits: 245, Late: 0, Early: 0, Misses: 0
4b4-> Hits: 1064, Late: 0, Early: 0, Misses: 0
4b5-> Hits: 0, Late: 14167, Early: 0, Misses: 0
4b6-> Hits: 15547, Late: 2812, Early: 0, Misses: 8044
4b8-> Hits: 9428, Late: 0, Early: 0, Misses: 0
4b9-> Hits: 20, Late: 14147, Early: 0, Misses: 0
4bd-> Hits: 1250, Late: 18, Early: 0, Misses: 0
4be-> Hits: 3741, Late: 1147, Early: 0, Misses: 0
4bf-> Hits: 11063, Late: 649, Early: 0, Misses: 533
4c0-> Hits: 5547, Late: 1, Early: 0, Misses: 0
4c2-> Hits: 1, Late: 14167, Early: 0, Misses: 0
4c3-> Hits: 7521, Late: 14794, Early: 0, Misses: 0
4c4-> Hits: 2, Late: 0, Early: 0, Misses: 0
4c5-> Hits: 8003, Late: 0, Early: 0, Misses: 0
4c6-> Hits: 2, Late: 0, Early: 0, Misses: 0
4c7-> Hits: 0, Late: 14167, Early: 0, Misses: 0
4c8-> Hits: 11034, Late: 43, Early: 0, Misses: 0
4c9-> Hits: 3891, Late: 5572, Early: 0, Misses: 0
4ca-> Hits: 2, Late: 0, Early: 0, Misses: 0
4cb-> Hits: 1, Late: 0, Early: 0, Misses: 0
4cd-> Hits: 8429, Late: 14168, Early: 0, Misses: 0
4ce-> Hits: 12189, Late: 850, Early: 0, Misses: 0
4d0-> Hits: 9427, Late: 0, Early: 0, Misses: 0
4d2-> Hits: 14008, Late: 8543, Early: 0, Misses: 0
4d3-> Hits: 16857, Late: 38, Early: 0, Misses: 184
4d4-> Hits: 3, Late: 0, Early: 0, Misses: 0
4d5-> Hits: 1, Late: 14167, Early: 0, Misses: 0
4d6-> Hits: 0, Late: 1, Early: 0, Misses: 0
4d7-> Hits: 8725, Late: 0, Early: 0, Misses: 0
4d8-> Hits: 12, Late: 14156, Early: 0, Misses: 0
4d9-> Hits: 13199, Late: 0, Early: 0, Misses: 0
4de-> Hits: 8530, Late: 6091, Early: 0, Misses: 0
4df-> Hits: 9933, Late: 0, Early: 0, Misses: 0
4e0-> Hits: 1436, Late: 699, Early: 0, Misses: 13
4e3-> Hits: 12842, Late: 2385, Early: 0, Misses: 0
4e4-> Hits: 5, Late: 1, Early: 0, Misses: 0
4e6-> Hits: 1666, Late: 48, Early: 0, Misses: 0
4e7-> Hits: 0, Late: 14167, Early: 0, Misses: 0
4e8-> Hits: 8586, Late: 0, Early: 0, Misses: 0
4ea-> Hits: 10320, Late: 14167, Early: 0, Misses: 0
4eb-> Hits: 8146, Late: 14167, Early: 0, Misses: 0
4ec-> Hits: 18, Late: 0, Early: 0, Misses: 0
4ed-> Hits: 2115, Late: 0, Early: 0, Misses: 0
4ef-> Hits: 1133, Late: 1183, Early: 0, Misses: 62
4f0-> Hits: 18, Late: 1, Early: 0, Misses: 0
4f1-> Hits: 527, Late: 0, Early: 0, Misses: 0
4f2-> Hits: 10890, Late: 6173, Early: 0, Misses: 0
4f3-> Hits: 10172, Late: 0, Early: 0, Misses: 0
4f4-> Hits: 35, Late: 1, Early: 0, Misses: 0
4f7-> Hits: 12571, Late: 15603, Early: 0, Misses: 0
4f9-> Hits: 7112, Late: 16, Early: 0, Misses: 0
4fb-> Hits: 1, Late: 0, Early: 0, Misses: 0
4fc-> Hits: 15995, Late: 0, Early: 0, Misses: 0
4fd-> Hits: 14166, Late: 0, Early: 0, Misses: 0
4fe-> Hits: 2, Late: 14167, Early: 0, Misses: 0
4ff-> Hits: 20, Late: 0, Early: 0, Misses: 0
501-> Hits: 18, Late: 0, Early: 0, Misses: 0
502-> Hits: 12582, Late: 0, Early: 0, Misses: 0
503-> Hits: 1392, Late: 0, Early: 0, Misses: 0
504-> Hits: 10001, Late: 1, Early: 0, Misses: 105
505-> Hits: 19, Late: 0, Early: 0, Misses: 0
507-> Hits: 7892, Late: 8010, Early: 0, Misses: 0
508-> Hits: 18, Late: 0, Early: 0, Misses: 0
509-> Hits: 18889, Late: 14168, Early: 0, Misses: 0
50a-> Hits: 3366, Late: 6060, Early: 0, Misses: 0
50d-> Hits: 0, Late: 14167, Early: 0, Misses: 0
50e-> Hits: 16575, Late: 0, Early: 0, Misses: 239
510-> Hits: 3177, Late: 1884, Early: 0, Misses: 0
511-> Hits: 7259, Late: 1263, Early: 0, Misses: 0
513-> Hits: 5884, Late: 398, Early: 0, Misses: 0
516-> Hits: 9427, Late: 14167, Early: 0, Misses: 0
517-> Hits: 13686, Late: 0, Early: 0, Misses: 0
518-> Hits: 3970, Late: 0, Early: 0, Misses: 0
51a-> Hits: 0, Late: 14167, Early: 0, Misses: 0
51c-> Hits: 11283, Late: 0, Early: 0, Misses: 2068
51d-> Hits: 1004, Late: 8, Early: 0, Misses: 0
51e-> Hits: 18854, Late: 0, Early: 0, Misses: 0
51f-> Hits: 0, Late: 14167, Early: 0, Misses: 0
520-> Hits: 6526, Late: 607, Early: 0, Misses: 0
521-> Hits: 1, Late: 14167, Early: 0, Misses: 0
522-> Hits: 7204, Late: 0, Early: 0, Misses: 0
523-> Hits: 9065, Late: 0, Early: 0, Misses: 0
525-> Hits: 7900, Late: 987, Early: 0, Misses: 0
527-> Hits: 453, Late: 9424, Early: 0, Misses: 1
52a-> Hits: 1, Late: 0, Early: 0, Misses: 0
52b-> Hits: 13394, Late: 0, Early: 0, Misses: 16
52c-> Hits: 9446, Late: 9407, Early: 0, Misses: 0
52d-> Hits: 8228, Late: 1171, Early: 0, Misses: 0
52f-> Hits: 104, Late: 17665, Early: 0, Misses: 0
530-> Hits: 9427, Late: 0, Early: 0, Misses: 0
531-> Hits: 1, Late: 0, Early: 0, Misses: 0
533-> Hits: 22808, Late: 300, Early: 0, Misses: 0
534-> Hits: 8753, Late: 600, Early: 0, Misses: 0
536-> Hits: 32, Late: 9394, Early: 0, Misses: 0
538-> Hits: 10, Late: 0, Early: 0, Misses: 0
539-> Hits: 23235, Late: 1, Early: 0, Misses: 0
53b-> Hits: 16260, Late: 2306, Early: 0, Misses: 0
53c-> Hits: 252, Late: 2324, Early: 0, Misses: 0
53d-> Hits: 212, Late: 0, Early: 0, Misses: 0
53e-> Hits: 9426, Late: 14168, Early: 0, Misses: 0
53f-> Hits: 1, Late: 0, Early: 0, Misses: 0
540-> Hits: 9300, Late: 0, Early: 0, Misses: 0
541-> Hits: 4, Late: 0, Early: 0, Misses: 0
542-> Hits: 187, Late: 11219, Early: 0, Misses: 0
545-> Hits: 1581, Late: 1164, Early: 0, Misses: 0
546-> Hits: 9346, Late: 0, Early: 0, Misses: 0
547-> Hits: 18675, Late: 179, Early: 0, Misses: 0
549-> Hits: 2659, Late: 11, Early: 0, Misses: 0
54a-> Hits: 5773, Late: 9694, Early: 0, Misses: 0
54b-> Hits: 3703, Late: 0, Early: 0, Misses: 3
54c-> Hits: 42, Late: 3499, Early: 0, Misses: 0
54d-> Hits: 2, Late: 0, Early: 0, Misses: 0
54f-> Hits: 554, Late: 0, Early: 0, Misses: 0
550-> Hits: 8577, Late: 2385, Early: 0, Misses: 0
551-> Hits: 841, Late: 688, Early: 0, Misses: 0
552-> Hits: 1, Late: 0, Early: 0, Misses: 0
553-> Hits: 10284, Late: 1800, Early: 0, Misses: 0
556-> Hits: 9495, Late: 21, Early: 0, Misses: 12
557-> Hits: 4844, Late: 830, Early: 0, Misses: 0
558-> Hits: 16463, Late: 0, Early: 0, Misses: 0
559-> Hits: 1, Late: 0, Early: 0, Misses: 0
55b-> Hits: 126, Late: 9300, Early: 0, Misses: 0
55c-> Hits: 11078, Late: 1197, Early: 0, Misses: 0
55d-> Hits: 9421, Late: 0, Early: 0, Misses: 0
55e-> Hits: 9786, Late: 2441, Early: 0, Misses: 0
55f-> Hits: 292, Late: 0, Early: 0, Misses: 0
561-> Hits: 926, Late: 1224, Early: 0, Misses: 0
562-> Hits: 376, Late: 9086, Early: 0, Misses: 0
563-> Hits: 36, Late: 0, Early: 0, Misses: 0
564-> Hits: 217, Late: 16, Early: 0, Misses: 0
565-> Hits: 5213, Late: 0, Early: 0, Misses: 0
566-> Hits: 2, Late: 1, Early: 0, Misses: 0
567-> Hits: 9428, Late: 0, Early: 0, Misses: 0
568-> Hits: 10087, Late: 0, Early: 0, Misses: 0
569-> Hits: 1, Late: 0, Early: 0, Misses: 0
56b-> Hits: 16829, Late: 0, Early: 0, Misses: 0
56c-> Hits: 1, Late: 0, Early: 0, Misses: 0
56d-> Hits: 1, Late: 0, Early: 0, Misses: 0
56e-> Hits: 214, Late: 9378, Early: 0, Misses: 0
56f-> Hits: 871, Late: 1795, Early: 0, Misses: 0
570-> Hits: 11412, Late: 6467, Early: 0, Misses: 0
573-> Hits: 5930, Late: 8962, Early: 0, Misses: 0
575-> Hits: 14166, Late: 0, Early: 0, Misses: 0
577-> Hits: 553, Late: 2, Early: 0, Misses: 0
579-> Hits: 1, Late: 0, Early: 0, Misses: 0
57a-> Hits: 7766, Late: 0, Early: 0, Misses: 0
57b-> Hits: 0, Late: 9426, Early: 0, Misses: 0
57c-> Hits: 9254, Late: 0, Early: 0, Misses: 0
57e-> Hits: 1378, Late: 0, Early: 0, Misses: 0
57f-> Hits: 1, Late: 0, Early: 0, Misses: 0
580-> Hits: 9304, Late: 2073, Early: 0, Misses: 0
583-> Hits: 3028, Late: 8448, Early: 0, Misses: 0
585-> Hits: 288, Late: 2120, Early: 0, Misses: 0
588-> Hits: 1233, Late: 0, Early: 0, Misses: 0
58a-> Hits: 9427, Late: 9426, Early: 0, Misses: 0
58b-> Hits: 4575, Late: 58, Early: 0, Misses: 0
58c-> Hits: 1, Late: 0, Early: 0, Misses: 0
58d-> Hits: 7329, Late: 7122, Early: 0, Misses: 0
58e-> Hits: 1101, Late: 1818, Early: 0, Misses: 0
591-> Hits: 9345, Late: 0, Early: 0, Misses: 0
594-> Hits: 1, Late: 0, Early: 0, Misses: 0
597-> Hits: 9383, Late: 0, Early: 0, Misses: 0
598-> Hits: 328, Late: 1056, Early: 0, Misses: 0
599-> Hits: 1, Late: 0, Early: 0, Misses: 0
59a-> Hits: 7782, Late: 9134, Early: 0, Misses: 0
59e-> Hits: 0, Late: 9426, Early: 0, Misses: 0
59f-> Hits: 24317, Late: 0, Early: 0, Misses: 0
5a0-> Hits: 9427, Late: 0, Early: 0, Misses: 0
5a1-> Hits: 801, Late: 7, Early: 0, Misses: 0
5a4-> Hits: 229, Late: 9197, Early: 0, Misses: 0
5a5-> Hits: 77, Late: 14090, Early: 0, Misses: 0
5a6-> Hits: 5839, Late: 0, Early: 0, Misses: 0
5a7-> Hits: 5613, Late: 7452, Early: 0, Misses: 0
5a8-> Hits: 13407, Late: 0, Early: 0, Misses: 3
5a9-> Hits: 8228, Late: 2106, Early: 0, Misses: 0
5ab-> Hits: 1, Late: 0, Early: 0, Misses: 0
5ac-> Hits: 9429, Late: 0, Early: 0, Misses: 0
5ad-> Hits: 1, Late: 0, Early: 0, Misses: 0
5ae-> Hits: 1, Late: 9426, Early: 0, Misses: 0
5af-> Hits: 7171, Late: 0, Early: 0, Misses: 0
5b1-> Hits: 9428, Late: 1, Early: 0, Misses: 0
5b2-> Hits: 2, Late: 1, Early: 0, Misses: 0
5b3-> Hits: 4535, Late: 0, Early: 0, Misses: 0
5b4-> Hits: 54, Late: 14113, Early: 0, Misses: 0
5b5-> Hits: 1, Late: 0, Early: 0, Misses: 0
5b6-> Hits: 1, Late: 0, Early: 0, Misses: 0
5b7-> Hits: 1575, Late: 9075, Early: 0, Misses: 0
5b8-> Hits: 9427, Late: 9426, Early: 0, Misses: 0
5b9-> Hits: 9427, Late: 0, Early: 0, Misses: 0
5ba-> Hits: 71, Late: 0, Early: 0, Misses: 0
5bc-> Hits: 9426, Late: 0, Early: 0, Misses: 0
5be-> Hits: 1, Late: 0, Early: 0, Misses: 0
5c0-> Hits: 466, Late: 8960, Early: 0, Misses: 0
5c1-> Hits: 5109, Late: 0, Early: 0, Misses: 0
5c3-> Hits: 9720, Late: 13874, Early: 0, Misses: 0
5c4-> Hits: 16682, Late: 693, Early: 0, Misses: 0
5c7-> Hits: 245, Late: 13922, Early: 0, Misses: 0
5ca-> Hits: 0, Late: 9426, Early: 0, Misses: 0
5cc-> Hits: 1185, Late: 0, Early: 0, Misses: 0
5cd-> Hits: 3515, Late: 25, Early: 0, Misses: 0
5cf-> Hits: 1140, Late: 8286, Early: 0, Misses: 0
5d0-> Hits: 18239, Late: 238, Early: 0, Misses: 0
5d1-> Hits: 9424, Late: 0, Early: 0, Misses: 0
5d2-> Hits: 298, Late: 13869, Early: 0, Misses: 0
5d3-> Hits: 9426, Late: 0, Early: 0, Misses: 0
5d4-> Hits: 1, Late: 0, Early: 0, Misses: 0
5d5-> Hits: 13223, Late: 5630, Early: 0, Misses: 0
5d8-> Hits: 8181, Late: 0, Early: 0, Misses: 0
5d9-> Hits: 1396, Late: 0, Early: 0, Misses: 0
5da-> Hits: 17070, Late: 1196, Early: 0, Misses: 0
5dc-> Hits: 9908, Late: 13685, Early: 0, Misses: 0
5de-> Hits: 0, Late: 9426, Early: 0, Misses: 0
5e0-> Hits: 1, Late: 0, Early: 0, Misses: 0
5e2-> Hits: 9427, Late: 0, Early: 0, Misses: 0
5e3-> Hits: 851, Late: 18, Early: 0, Misses: 0
5e4-> Hits: 2662, Late: 16190, Early: 0, Misses: 0
5e5-> Hits: 2622, Late: 11545, Early: 0, Misses: 0
5e8-> Hits: 2, Late: 0, Early: 0, Misses: 0
5e9-> Hits: 9427, Late: 0, Early: 0, Misses: 0
5ea-> Hits: 16903, Late: 0, Early: 0, Misses: 0
5eb-> Hits: 167, Late: 0, Early: 0, Misses: 0
5ec-> Hits: 1, Late: 0, Early: 0, Misses: 0
5ef-> Hits: 14102, Late: 10615, Early: 0, Misses: 0
5f0-> Hits: 9427, Late: 0, Early: 0, Misses: 0
5f1-> Hits: 9390, Late: 1, Early: 0, Misses: 0
5f4-> Hits: 364, Late: 9062, Early: 0, Misses: 0
5f5-> Hits: 1, Late: 0, Early: 0, Misses: 0
5f6-> Hits: 16438, Late: 0, Early: 0, Misses: 0
5f7-> Hits: 2250, Late: 11917, Early: 0, Misses: 0
5f9-> Hits: 1824, Late: 27, Early: 0, Misses: 0
5fd-> Hits: 87, Late: 0, Early: 0, Misses: 0
5fe-> Hits: 9427, Late: 0, Early: 0, Misses: 0
5ff-> Hits: 15203, Late: 14034, Early: 0, Misses: 0
601-> Hits: 2235, Late: 0, Early: 0, Misses: 0
602-> Hits: 9427, Late: 0, Early: 0, Misses: 0
603-> Hits: 2, Late: 0, Early: 0, Misses: 0
607-> Hits: 0, Late: 9426, Early: 0, Misses: 0
609-> Hits: 2610, Late: 6816, Early: 0, Misses: 0
60b-> Hits: 9424, Late: 0, Early: 0, Misses: 0
60d-> Hits: 152, Late: 14015, Early: 0, Misses: 0
60e-> Hits: 1319, Late: 0, Early: 0, Misses: 0
60f-> Hits: 13758, Late: 9835, Early: 0, Misses: 0
610-> Hits: 122, Late: 0, Early: 0, Misses: 0
611-> Hits: 9048, Late: 0, Early: 0, Misses: 0
613-> Hits: 3784, Late: 5642, Early: 0, Misses: 0
616-> Hits: 2, Late: 0, Early: 0, Misses: 0
618-> Hits: 9427, Late: 0, Early: 0, Misses: 0
619-> Hits: 130, Late: 23463, Early: 0, Misses: 0
61c-> Hits: 32884, Late: 0, Early: 0, Misses: 0
61f-> Hits: 759, Late: 2329, Early: 0, Misses: 0
620-> Hits: 18, Late: 0, Early: 0, Misses: 0
621-> Hits: 23759, Late: 4268, Early: 0, Misses: 0
622-> Hits: 1, Late: 0, Early: 0, Misses: 0
623-> Hits: 6210, Late: 1396, Early: 0, Misses: 0
624-> Hits: 1, Late: 0, Early: 0, Misses: 0
625-> Hits: 147, Late: 14167, Early: 0, Misses: 0
626-> Hits: 1197, Late: 14102, Early: 0, Misses: 0
629-> Hits: 3, Late: 0, Early: 0, Misses: 0
62a-> Hits: 10701, Late: 1, Early: 0, Misses: 0
62b-> Hits: 3881, Late: 569, Early: 0, Misses: 0
62c-> Hits: 1, Late: 0, Early: 0, Misses: 0
62d-> Hits: 18854, Late: 9426, Early: 0, Misses: 0
62e-> Hits: 1, Late: 0, Early: 0, Misses: 0
630-> Hits: 7485, Late: 0, Early: 0, Misses: 0
631-> Hits: 3, Late: 0, Early: 0, Misses: 0
632-> Hits: 3, Late: 0, Early: 0, Misses: 0
633-> Hits: 204, Late: 15360, Early: 0, Misses: 0
634-> Hits: 8381, Late: 9, Early: 0, Misses: 0
636-> Hits: 4, Late: 0, Early: 0, Misses: 0
637-> Hits: 2132, Late: 136, Early: 0, Misses: 0
638-> Hits: 3, Late: 0, Early: 0, Misses: 0
639-> Hits: 1, Late: 0, Early: 0, Misses: 0
63a-> Hits: 9427, Late: 0, Early: 0, Misses: 0
63b-> Hits: 2576, Late: 1, Early: 0, Misses: 0
63c-> Hits: 3642, Late: 5958, Early: 0, Misses: 0
63d-> Hits: 8459, Late: 0, Early: 0, Misses: 0
63e-> Hits: 0, Late: 9426, Early: 0, Misses: 0
640-> Hits: 16039, Late: 2854, Early: 0, Misses: 0
641-> Hits: 11670, Late: 2847, Early: 0, Misses: 0
643-> Hits: 0, Late: 14167, Early: 0, Misses: 0
644-> Hits: 338, Late: 1259, Early: 0, Misses: 0
645-> Hits: 48, Late: 0, Early: 0, Misses: 0
646-> Hits: 0, Late: 14167, Early: 0, Misses: 0
647-> Hits: 9043, Late: 0, Early: 0, Misses: 0
649-> Hits: 14097, Late: 0, Early: 0, Misses: 0
64a-> Hits: 0, Late: 14167, Early: 0, Misses: 0
64b-> Hits: 9438, Late: 1, Early: 0, Misses: 0
64c-> Hits: 1, Late: 0, Early: 0, Misses: 0
64d-> Hits: 9427, Late: 0, Early: 0, Misses: 0
64e-> Hits: 1533, Late: 0, Early: 0, Misses: 0
64f-> Hits: 24780, Late: 453, Early: 0, Misses: 0
651-> Hits: 939, Late: 14184, Early: 0, Misses: 0
653-> Hits: 8, Late: 0, Early: 0, Misses: 0
654-> Hits: 11512, Late: 0, Early: 0, Misses: 0
656-> Hits: 1, Late: 9425, Early: 0, Misses: 0
657-> Hits: 734, Late: 0, Early: 0, Misses: 0
658-> Hits: 867, Late: 17665, Early: 0, Misses: 0
659-> Hits: 913, Late: 8513, Early: 0, Misses: 0
65a-> Hits: 734, Late: 0, Early: 0, Misses: 0
65b-> Hits: 167, Late: 9426, Early: 0, Misses: 0
65c-> Hits: 4364, Late: 5062, Early: 0, Misses: 0
65d-> Hits: 1, Late: 0, Early: 0, Misses: 0
65e-> Hits: 1122, Late: 0, Early: 0, Misses: 0
660-> Hits: 9427, Late: 0, Early: 0, Misses: 0
661-> Hits: 15740, Late: 945, Early: 0, Misses: 0
664-> Hits: 0, Late: 14167, Early: 0, Misses: 0
665-> Hits: 80, Late: 2328, Early: 0, Misses: 0
666-> Hits: 3866, Late: 5560, Early: 0, Misses: 0
667-> Hits: 735, Late: 18, Early: 0, Misses: 0
668-> Hits: 9427, Late: 0, Early: 0, Misses: 0
66a-> Hits: 144, Late: 13042, Early: 0, Misses: 0
66b-> Hits: 1, Late: 0, Early: 0, Misses: 0
66c-> Hits: 6142, Late: 0, Early: 0, Misses: 0
66d-> Hits: 84, Late: 0, Early: 0, Misses: 0
66e-> Hits: 1, Late: 0, Early: 0, Misses: 0
66f-> Hits: 9365, Late: 5, Early: 0, Misses: 0
670-> Hits: 266, Late: 1, Early: 0, Misses: 0
671-> Hits: 13749, Late: 5104, Early: 0, Misses: 0
673-> Hits: 1, Late: 0, Early: 0, Misses: 0
674-> Hits: 9858, Late: 803, Early: 0, Misses: 0
676-> Hits: 7971, Late: 15370, Early: 0, Misses: 0
677-> Hits: 9370, Late: 0, Early: 0, Misses: 0
678-> Hits: 282, Late: 1331, Early: 0, Misses: 0
679-> Hits: 5966, Late: 248, Early: 0, Misses: 0
67b-> Hits: 0, Late: 14167, Early: 0, Misses: 0
67c-> Hits: 3664, Late: 0, Early: 0, Misses: 0
67d-> Hits: 2363, Late: 50, Early: 0, Misses: 0
67e-> Hits: 22269, Late: 9449, Early: 0, Misses: 1302
67f-> Hits: 271, Late: 0, Early: 0, Misses: 0
680-> Hits: 992, Late: 9081, Early: 0, Misses: 0
681-> Hits: 6114, Late: 5023, Early: 0, Misses: 0
682-> Hits: 9425, Late: 0, Early: 0, Misses: 0
684-> Hits: 1161, Late: 8266, Early: 0, Misses: 0
686-> Hits: 1804, Late: 1653, Early: 0, Misses: 0
688-> Hits: 0, Late: 14167, Early: 0, Misses: 0
689-> Hits: 690, Late: 1456, Early: 0, Misses: 0
68b-> Hits: 23593, Late: 0, Early: 0, Misses: 0
68d-> Hits: 13222, Late: 0, Early: 0, Misses: 0
68e-> Hits: 3123, Late: 15777, Early: 0, Misses: 0
693-> Hits: 2416, Late: 66, Early: 0, Misses: 0
694-> Hits: 6, Late: 0, Early: 0, Misses: 0
695-> Hits: 3515, Late: 8012, Early: 0, Misses: 0
696-> Hits: 7785, Late: 0, Early: 0, Misses: 0
697-> Hits: 8177, Late: 0, Early: 0, Misses: 1249
698-> Hits: 0, Late: 9426, Early: 0, Misses: 0
699-> Hits: 0, Late: 14167, Early: 0, Misses: 0
69a-> Hits: 3420, Late: 1388, Early: 0, Misses: 0
69c-> Hits: 9427, Late: 0, Early: 0, Misses: 0
69d-> Hits: 26, Late: 9400, Early: 0, Misses: 0
6a5-> Hits: 8585, Late: 0, Early: 0, Misses: 0
6a6-> Hits: 13260, Late: 14167, Early: 0, Misses: 0
6a7-> Hits: 4332, Late: 9951, Early: 0, Misses: 0
6a8-> Hits: 21383, Late: 2211, Early: 0, Misses: 0
6a9-> Hits: 529, Late: 12, Early: 0, Misses: 0
6aa-> Hits: 4847, Late: 0, Early: 0, Misses: 0
6ab-> Hits: 13551, Late: 0, Early: 0, Misses: 0
6ac-> Hits: 43, Late: 9383, Early: 0, Misses: 0
6ad-> Hits: 1, Late: 0, Early: 0, Misses: 0
6af-> Hits: 12406, Late: 110, Early: 0, Misses: 1650
6b0-> Hits: 0, Late: 14167, Early: 0, Misses: 0
6b3-> Hits: 164, Late: 9266, Early: 0, Misses: 0
6b5-> Hits: 0, Late: 9426, Early: 0, Misses: 0
6b7-> Hits: 33681, Late: 0, Early: 0, Misses: 0
6b8-> Hits: 7292, Late: 1183, Early: 0, Misses: 0
6bb-> Hits: 303, Late: 9123, Early: 0, Misses: 0
6bd-> Hits: 78, Late: 8, Early: 0, Misses: 0
6be-> Hits: 4248, Late: 3498, Early: 0, Misses: 0
6bf-> Hits: 14166, Late: 0, Early: 0, Misses: 0
6c0-> Hits: 6584, Late: 2844, Early: 0, Misses: 0
6c1-> Hits: 91, Late: 0, Early: 0, Misses: 0
6c2-> Hits: 13304, Late: 4, Early: 0, Misses: 859
6c3-> Hits: 9510, Late: 0, Early: 0, Misses: 0
6c4-> Hits: 8723, Late: 0, Early: 0, Misses: 0
6c5-> Hits: 0, Late: 9426, Early: 0, Misses: 0
6c6-> Hits: 381, Late: 9046, Early: 0, Misses: 0
6ca-> Hits: 9411, Late: 14167, Early: 0, Misses: 0
6cb-> Hits: 9481, Late: 10543, Early: 0, Misses: 8254
6cc-> Hits: 2989, Late: 0, Early: 0, Misses: 0
6cd-> Hits: 9114, Late: 0, Early: 0, Misses: 0
6d0-> Hits: 9539, Late: 1792, Early: 0, Misses: 0
6d2-> Hits: 1, Late: 0, Early: 0, Misses: 0
6d3-> Hits: 4031, Late: 754, Early: 0, Misses: 0
6d5-> Hits: 579, Late: 9426, Early: 0, Misses: 0
6d7-> Hits: 5161, Late: 0, Early: 0, Misses: 0
6d8-> Hits: 116, Late: 3501, Early: 0, Misses: 0
6d9-> Hits: 185, Late: 9327, Early: 0, Misses: 1
6da-> Hits: 6356, Late: 9322, Early: 0, Misses: 0
6dc-> Hits: 2403, Late: 7023, Early: 0, Misses: 0
6de-> Hits: 27445, Late: 0, Early: 0, Misses: 0
6df-> Hits: 9427, Late: 0, Early: 0, Misses: 0
6e1-> Hits: 8238, Late: 15682, Early: 0, Misses: 1
6e3-> Hits: 3214, Late: 0, Early: 0, Misses: 0
6e4-> Hits: 10166, Late: 8686, Early: 0, Misses: 0
6e8-> Hits: 10569, Late: 0, Early: 0, Misses: 0
6e9-> Hits: 1, Late: 0, Early: 0, Misses: 0
6ea-> Hits: 580, Late: 1806, Early: 0, Misses: 0
6eb-> Hits: 2371, Late: 7126, Early: 0, Misses: 0
6ed-> Hits: 6617, Late: 2809, Early: 0, Misses: 0
6ef-> Hits: 10004, Late: 14900, Early: 0, Misses: 1022
6f0-> Hits: 9427, Late: 0, Early: 0, Misses: 0
6f1-> Hits: 4256, Late: 1966, Early: 0, Misses: 0
6f2-> Hits: 770, Late: 252, Early: 0, Misses: 0
6f5-> Hits: 17784, Late: 0, Early: 0, Misses: 0
6f8-> Hits: 9427, Late: 0, Early: 0, Misses: 0
6f9-> Hits: 2, Late: 0, Early: 0, Misses: 0
6fb-> Hits: 257, Late: 1802, Early: 0, Misses: 0
6fe-> Hits: 168, Late: 0, Early: 0, Misses: 0
6ff-> Hits: 6647, Late: 2779, Early: 0, Misses: 0
700-> Hits: 2, Late: 1, Early: 0, Misses: 0
701-> Hits: 12561, Late: 0, Early: 0, Misses: 0
702-> Hits: 8990, Late: 0, Early: 0, Misses: 0
703-> Hits: 9430, Late: 0, Early: 0, Misses: 0
704-> Hits: 7978, Late: 1165, Early: 0, Misses: 0
705-> Hits: 3513, Late: 10654, Early: 0, Misses: 0
706-> Hits: 3, Late: 0, Early: 0, Misses: 0
707-> Hits: 19, Late: 0, Early: 0, Misses: 0
708-> Hits: 18851, Late: 0, Early: 0, Misses: 0
70a-> Hits: 984, Late: 1205, Early: 0, Misses: 0
70b-> Hits: 2176, Late: 0, Early: 0, Misses: 0
70c-> Hits: 14442, Late: 1839, Early: 0, Misses: 822
70d-> Hits: 9427, Late: 0, Early: 0, Misses: 0
70f-> Hits: 1, Late: 0, Early: 0, Misses: 0
711-> Hits: 8198, Late: 0, Early: 0, Misses: 0
712-> Hits: 3, Late: 0, Early: 0, Misses: 0
713-> Hits: 3997, Late: 277, Early: 0, Misses: 0
714-> Hits: 14166, Late: 0, Early: 0, Misses: 0
715-> Hits: 1, Late: 0, Early: 0, Misses: 0
716-> Hits: 7671, Late: 885, Early: 0, Misses: 0
717-> Hits: 14278, Late: 2, Early: 0, Misses: 0
718-> Hits: 327, Late: 0, Early: 0, Misses: 0
719-> Hits: 1026, Late: 7640, Early: 0, Misses: 0
71a-> Hits: 9427, Late: 0, Early: 0, Misses: 0
71b-> Hits: 9445, Late: 0, Early: 0, Misses: 0
71c-> Hits: 3316, Late: 10851, Early: 0, Misses: 0
71e-> Hits: 6570, Late: 2857, Early: 0, Misses: 0
720-> Hits: 2817, Late: 6610, Early: 0, Misses: 0
723-> Hits: 1, Late: 0, Early: 0, Misses: 0
725-> Hits: 18536, Late: 0, Early: 0, Misses: 0
727-> Hits: 13097, Late: 1160, Early: 0, Misses: 58
728-> Hits: 1, Late: 0, Early: 0, Misses: 0
729-> Hits: 7, Late: 0, Early: 0, Misses: 0
72a-> Hits: 3198, Late: 6228, Early: 0, Misses: 0
72b-> Hits: 1645, Late: 1990, Early: 0, Misses: 0
72c-> Hits: 7728, Late: 648, Early: 0, Misses: 0
72d-> Hits: 2658, Late: 0, Early: 0, Misses: 0
72e-> Hits: 8075, Late: 0, Early: 0, Misses: 0
731-> Hits: 9431, Late: 0, Early: 0, Misses: 0
732-> Hits: 187, Late: 13980, Early: 0, Misses: 0
734-> Hits: 8959, Late: 0, Early: 0, Misses: 0
736-> Hits: 9447, Late: 0, Early: 0, Misses: 0
737-> Hits: 19, Late: 0, Early: 0, Misses: 0
738-> Hits: 10481, Late: 16006, Early: 0, Misses: 0
739-> Hits: 4841, Late: 4604, Early: 0, Misses: 0
73b-> Hits: 2595, Late: 6832, Early: 0, Misses: 0
73c-> Hits: 8325, Late: 0, Early: 0, Misses: 0
73d-> Hits: 6521, Late: 2905, Early: 0, Misses: 0
73e-> Hits: 5054, Late: 14414, Early: 0, Misses: 0
741-> Hits: 2, Late: 0, Early: 0, Misses: 0
742-> Hits: 18802, Late: 0, Early: 0, Misses: 0
746-> Hits: 7943, Late: 11, Early: 0, Misses: 1472
747-> Hits: 3715, Late: 15039, Early: 0, Misses: 0
748-> Hits: 5303, Late: 0, Early: 0, Misses: 0
74a-> Hits: 2, Late: 0, Early: 0, Misses: 0
74c-> Hits: 7111, Late: 1186, Early: 0, Misses: 0
74d-> Hits: 9427, Late: 0, Early: 0, Misses: 0
74e-> Hits: 5558, Late: 0, Early: 0, Misses: 0
74f-> Hits: 9383, Late: 0, Early: 0, Misses: 0
750-> Hits: 17122, Late: 6381, Early: 0, Misses: 8
751-> Hits: 9427, Late: 0, Early: 0, Misses: 0
752-> Hits: 3049, Late: 0, Early: 0, Misses: 0
753-> Hits: 9428, Late: 0, Early: 0, Misses: 0
754-> Hits: 9429, Late: 0, Early: 0, Misses: 0
756-> Hits: 4604, Late: 1724, Early: 0, Misses: 0
757-> Hits: 59, Late: 14109, Early: 0, Misses: 0
758-> Hits: 2, Late: 0, Early: 0, Misses: 0
75a-> Hits: 266, Late: 13903, Early: 0, Misses: 0
75b-> Hits: 19609, Late: 1199, Early: 0, Misses: 0
75c-> Hits: 1622, Late: 74, Early: 0, Misses: 0
75d-> Hits: 1, Late: 0, Early: 0, Misses: 0
760-> Hits: 9424, Late: 0, Early: 0, Misses: 2
762-> Hits: 9413, Late: 0, Early: 0, Misses: 0
763-> Hits: 1, Late: 0, Early: 0, Misses: 0
764-> Hits: 11874, Late: 11720, Early: 0, Misses: 0
765-> Hits: 1182, Late: 0, Early: 0, Misses: 21
766-> Hits: 40, Late: 14127, Early: 0, Misses: 0
769-> Hits: 3625, Late: 5804, Early: 0, Misses: 0
76a-> Hits: 1, Late: 0, Early: 0, Misses: 0
76c-> Hits: 1839, Late: 12328, Early: 0, Misses: 0
76d-> Hits: 8019, Late: 0, Early: 0, Misses: 0
76e-> Hits: 1, Late: 0, Early: 0, Misses: 0
76f-> Hits: 2451, Late: 868, Early: 0, Misses: 0
770-> Hits: 4018, Late: 5288, Early: 0, Misses: 0
772-> Hits: 15909, Late: 14167, Early: 0, Misses: 0
773-> Hits: 12233, Late: 11361, Early: 0, Misses: 0
774-> Hits: 7, Late: 0, Early: 0, Misses: 0
776-> Hits: 1, Late: 0, Early: 0, Misses: 0
777-> Hits: 1989, Late: 0, Early: 0, Misses: 0
778-> Hits: 7, Late: 0, Early: 0, Misses: 0
779-> Hits: 82, Late: 14085, Early: 0, Misses: 0
77a-> Hits: 2032, Late: 0, Early: 0, Misses: 0
77b-> Hits: 9420, Late: 0, Early: 0, Misses: 6
77c-> Hits: 16056, Late: 169, Early: 0, Misses: 0
77d-> Hits: 1, Late: 0, Early: 0, Misses: 0
77f-> Hits: 11460, Late: 4534, Early: 0, Misses: 0
781-> Hits: 2024, Late: 14167, Early: 0, Misses: 0
782-> Hits: 12525, Late: 0, Early: 0, Misses: 13
783-> Hits: 19821, Late: 0, Early: 0, Misses: 0
784-> Hits: 1, Late: 0, Early: 0, Misses: 0
785-> Hits: 7443, Late: 1220, Early: 0, Misses: 0
787-> Hits: 8845, Late: 0, Early: 0, Misses: 0
789-> Hits: 7052, Late: 751, Early: 0, Misses: 0
78a-> Hits: 1145, Late: 13022, Early: 0, Misses: 0
78b-> Hits: 526, Late: 13641, Early: 0, Misses: 0
78e-> Hits: 168, Late: 13999, Early: 0, Misses: 0
78f-> Hits: 19919, Late: 998, Early: 0, Misses: 0
790-> Hits: 23489, Late: 1, Early: 0, Misses: 18
791-> Hits: 9426, Late: 0, Early: 0, Misses: 0
793-> Hits: 14144, Late: 0, Early: 0, Misses: 0
794-> Hits: 4301, Late: 5125, Early: 0, Misses: 0
795-> Hits: 1, Late: 0, Early: 0, Misses: 0
798-> Hits: 9499, Late: 14167, Early: 0, Misses: 2
799-> Hits: 3430, Late: 1495, Early: 0, Misses: 0
79b-> Hits: 49, Late: 14118, Early: 0, Misses: 0
79c-> Hits: 7811, Late: 0, Early: 0, Misses: 0
79d-> Hits: 7292, Late: 0, Early: 0, Misses: 0
79e-> Hits: 8734, Late: 240, Early: 0, Misses: 0
7a0-> Hits: 1205, Late: 12966, Early: 0, Misses: 0
7a1-> Hits: 13358, Late: 0, Early: 0, Misses: 0
7a2-> Hits: 1, Late: 0, Early: 0, Misses: 0
7a3-> Hits: 7, Late: 1, Early: 0, Misses: 0
7a4-> Hits: 4682, Late: 0, Early: 0, Misses: 0
7a5-> Hits: 17786, Late: 1067, Early: 0, Misses: 0
7a6-> Hits: 9427, Late: 0, Early: 0, Misses: 0
7a7-> Hits: 8136, Late: 0, Early: 0, Misses: 1290
7a9-> Hits: 7873, Late: 0, Early: 0, Misses: 0
7aa-> Hits: 14166, Late: 14167, Early: 0, Misses: 0
7ab-> Hits: 1, Late: 0, Early: 0, Misses: 0
7ac-> Hits: 3446, Late: 15407, Early: 0, Misses: 0
7ad-> Hits: 94, Late: 14073, Early: 0, Misses: 0
7ae-> Hits: 150, Late: 0, Early: 0, Misses: 0
7af-> Hits: 84, Late: 0, Early: 0, Misses: 0
7b2-> Hits: 3391, Late: 1939, Early: 0, Misses: 0
7b3-> Hits: 4, Late: 0, Early: 0, Misses: 0
7b6-> Hits: 1159, Late: 13008, Early: 0, Misses: 0
7b7-> Hits: 2161, Late: 0, Early: 0, Misses: 1
7ba-> Hits: 19105, Late: 14527, Early: 0, Misses: 0
7bb-> Hits: 19, Late: 14167, Early: 0, Misses: 0
7bc-> Hits: 10477, Late: 0, Early: 0, Misses: 0
7bd-> Hits: 8299, Late: 3, Early: 0, Misses: 0
7be-> Hits: 1, Late: 0, Early: 0, Misses: 0
7bf-> Hits: 9428, Late: 0, Early: 0, Misses: 0
7c0-> Hits: 1, Late: 0, Early: 0, Misses: 0
7c1-> Hits: 0, Late: 14167, Early: 0, Misses: 0
7c4-> Hits: 19654, Late: 965, Early: 0, Misses: 36
7c5-> Hits: 24750, Late: 0, Early: 0, Misses: 0
7c6-> Hits: 1, Late: 14167, Early: 0, Misses: 0
7c9-> Hits: 0, Late: 14167, Early: 0, Misses: 0
7cc-> Hits: 11364, Late: 12228, Early: 0, Misses: 0
7cd-> Hits: 5509, Late: 0, Early: 0, Misses: 0
7d1-> Hits: 1, Late: 0, Early: 0, Misses: 0
7d2-> Hits: 1, Late: 9426, Early: 0, Misses: 0
7d3-> Hits: 7998, Late: 2550, Early: 0, Misses: 0
7d5-> Hits: 9420, Late: 0, Early: 0, Misses: 0
7d6-> Hits: 20, Late: 0, Early: 0, Misses: 0
7d8-> Hits: 0, Late: 9426, Early: 0, Misses: 0
7d9-> Hits: 1, Late: 0, Early: 0, Misses: 0
7da-> Hits: 19125, Late: 14167, Early: 0, Misses: 1
7db-> Hits: 1108, Late: 9354, Early: 0, Misses: 0
7dc-> Hits: 5693, Late: 14167, Early: 0, Misses: 0
7dd-> Hits: 9367, Late: 0, Early: 0, Misses: 0
7e0-> Hits: 4473, Late: 1338, Early: 0, Misses: 0
7e2-> Hits: 1772, Late: 12395, Early: 0, Misses: 0
7e3-> Hits: 1, Late: 0, Early: 0, Misses: 0
7e5-> Hits: 254, Late: 0, Early: 0, Misses: 0
7e7-> Hits: 9427, Late: 0, Early: 0, Misses: 0
7e8-> Hits: 9427, Late: 14167, Early: 0, Misses: 0
7eb-> Hits: 1651, Late: 9415, Early: 0, Misses: 0
7ec-> Hits: 9156, Late: 0, Early: 0, Misses: 0
7ee-> Hits: 0, Late: 14167, Early: 0, Misses: 0
7f0-> Hits: 687, Late: 0, Early: 0, Misses: 2
7f1-> Hits: 23549, Late: 0, Early: 0, Misses: 0
7f2-> Hits: 23546, Late: 36, Early: 0, Misses: 10
7f4-> Hits: 9427, Late: 0, Early: 0, Misses: 0
7f5-> Hits: 4606, Late: 1178, Early: 0, Misses: 11
7f7-> Hits: 9427, Late: 0, Early: 0, Misses: 0
7f8-> Hits: 1612, Late: 12556, Early: 0, Misses: 0
7f9-> Hits: 262, Late: 9164, Early: 0, Misses: 0
7fb-> Hits: 0, Late: 14167, Early: 0, Misses: 0
7fc-> Hits: 504, Late: 18, Early: 0, Misses: 0
7fd-> Hits: 9430, Late: 0, Early: 0, Misses: 0
7ff-> Hits: 0, Late: 14167, Early: 0, Misses: 0
800-> Hits: 3, Late: 0, Early: 0, Misses: 0
801-> Hits: 1, Late: 0, Early: 0, Misses: 0
803-> Hits: 1, Late: 0, Early: 0, Misses: 0
804-> Hits: 23593, Late: 0, Early: 0, Misses: 0
806-> Hits: 392, Late: 0, Early: 0, Misses: 1
807-> Hits: 12863, Late: 0, Early: 0, Misses: 0
808-> Hits: 7922, Late: 0, Early: 0, Misses: 1504
80a-> Hits: 217, Late: 0, Early: 0, Misses: 0
80b-> Hits: 1, Late: 0, Early: 0, Misses: 0
80c-> Hits: 990, Late: 1270, Early: 0, Misses: 0
80d-> Hits: 9427, Late: 14167, Early: 0, Misses: 0
80e-> Hits: 1196, Late: 12971, Early: 0, Misses: 0
80f-> Hits: 320, Late: 3498, Early: 0, Misses: 0
810-> Hits: 8064, Late: 0, Early: 0, Misses: 0
811-> Hits: 1, Late: 14167, Early: 0, Misses: 0
812-> Hits: 1, Late: 0, Early: 0, Misses: 0
813-> Hits: 6125, Late: 0, Early: 0, Misses: 0
814-> Hits: 2, Late: 0, Early: 0, Misses: 0
815-> Hits: 1, Late: 0, Early: 0, Misses: 0
[...]
dc7-> Hits: 12311, Late: 0, Early: 0, Misses: 1
dc8-> Hits: 127, Late: 14040, Early: 0, Misses: 0
dc9-> Hits: 1, Late: 0, Early: 0, Misses: 0
dcb-> Hits: 17021, Late: 0, Early: 0, Misses: 0
dcc-> Hits: 18, Late: 0, Early: 0, Misses: 0
dcd-> Hits: 3036, Late: 1275, Early: 0, Misses: 0
dcf-> Hits: 7858, Late: 1168, Early: 0, Misses: 0
dd0-> Hits: 624, Late: 13543, Early: 0, Misses: 0
dd2-> Hits: 11442, Late: 0, Early: 0, Misses: 0
dd3-> Hits: 17, Late: 0, Early: 0, Misses: 0
dd4-> Hits: 23018, Late: 0, Early: 0, Misses: 0
dd6-> Hits: 2376, Late: 0, Early: 0, Misses: 0
dd8-> Hits: 9322, Late: 0, Early: 0, Misses: 0
dd9-> Hits: 6957, Late: 988, Early: 0, Misses: 0
ddb-> Hits: 154, Late: 14015, Early: 0, Misses: 0
ddc-> Hits: 6138, Late: 0, Early: 0, Misses: 0
ddd-> Hits: 167, Late: 0, Early: 0, Misses: 0
dde-> Hits: 14554, Late: 431, Early: 0, Misses: 0
de3-> Hits: 1503, Late: 7923, Early: 0, Misses: 0
de5-> Hits: 9396, Late: 0, Early: 0, Misses: 0
de8-> Hits: 6029, Late: 24, Early: 0, Misses: 0
de9-> Hits: 8446, Late: 0, Early: 0, Misses: 0
dea-> Hits: 9675, Late: 0, Early: 0, Misses: 0
dec-> Hits: 5170, Late: 0, Early: 0, Misses: 49
ded-> Hits: 5047, Late: 18546, Early: 0, Misses: 0
df2-> Hits: 11938, Late: 15179, Early: 0, Misses: 0
df3-> Hits: 388, Late: 0, Early: 0, Misses: 0
df5-> Hits: 17, Late: 0, Early: 0, Misses: 0
df6-> Hits: 17768, Late: 0, Early: 0, Misses: 0
df7-> Hits: 7413, Late: 578, Early: 0, Misses: 0
df8-> Hits: 1, Late: 0, Early: 0, Misses: 0
df9-> Hits: 17, Late: 0, Early: 0, Misses: 0
dfa-> Hits: 1, Late: 0, Early: 0, Misses: 0
dfb-> Hits: 14389, Late: 4287, Early: 0, Misses: 0
dfd-> Hits: 1, Late: 0, Early: 0, Misses: 0
dfe-> Hits: 12146, Late: 42, Early: 0, Misses: 1979
e00-> Hits: 13143, Late: 5, Early: 0, Misses: 332
e02-> Hits: 426, Late: 13742, Early: 0, Misses: 0
e05-> Hits: 3964, Late: 583, Early: 0, Misses: 0
e06-> Hits: 1249, Late: 8177, Early: 0, Misses: 0
e08-> Hits: 11379, Late: 0, Early: 0, Misses: 0
e0a-> Hits: 9427, Late: 0, Early: 0, Misses: 0
e0b-> Hits: 1, Late: 0, Early: 0, Misses: 0
e0d-> Hits: 8617, Late: 0, Early: 0, Misses: 0
e0e-> Hits: 6276, Late: 0, Early: 0, Misses: 0
e0f-> Hits: 5559, Late: 14101, Early: 0, Misses: 0
e10-> Hits: 1, Late: 0, Early: 0, Misses: 0
e12-> Hits: 3809, Late: 1183, Early: 0, Misses: 0
e13-> Hits: 9427, Late: 0, Early: 0, Misses: 0
e14-> Hits: 83, Late: 0, Early: 0, Misses: 0
e16-> Hits: 3476, Late: 5950, Early: 0, Misses: 0
e17-> Hits: 9428, Late: 0, Early: 0, Misses: 0
e18-> Hits: 5822, Late: 1170, Early: 0, Misses: 0
e19-> Hits: 302, Late: 0, Early: 0, Misses: 18
e1b-> Hits: 9317, Late: 1904, Early: 0, Misses: 0
e1c-> Hits: 60, Late: 14107, Early: 0, Misses: 0
e1d-> Hits: 1, Late: 0, Early: 0, Misses: 0
e1e-> Hits: 0, Late: 1, Early: 0, Misses: 0
e1f-> Hits: 679, Late: 0, Early: 0, Misses: 0
e21-> Hits: 520, Late: 0, Early: 0, Misses: 0
e22-> Hits: 23594, Late: 0, Early: 0, Misses: 0
e23-> Hits: 1, Late: 0, Early: 0, Misses: 0
e26-> Hits: 9427, Late: 0, Early: 0, Misses: 0
e27-> Hits: 6082, Late: 15361, Early: 0, Misses: 0
e2a-> Hits: 11478, Late: 0, Early: 0, Misses: 0
e2b-> Hits: 1, Late: 0, Early: 0, Misses: 0
e2d-> Hits: 9426, Late: 0, Early: 0, Misses: 0
e2e-> Hits: 1789, Late: 0, Early: 0, Misses: 0
e32-> Hits: 468, Late: 3, Early: 0, Misses: 10
e33-> Hits: 9069, Late: 0, Early: 0, Misses: 0
e35-> Hits: 9427, Late: 14167, Early: 0, Misses: 0
e36-> Hits: 20447, Late: 4143, Early: 0, Misses: 112
e3a-> Hits: 311, Late: 0, Early: 0, Misses: 0
e3b-> Hits: 3131, Late: 892, Early: 0, Misses: 0
e3c-> Hits: 0, Late: 14167, Early: 0, Misses: 0
e3d-> Hits: 17858, Late: 10410, Early: 0, Misses: 0
e3e-> Hits: 15896, Late: 1, Early: 0, Misses: 2956
e40-> Hits: 29078, Late: 127, Early: 0, Misses: 0
e41-> Hits: 1, Late: 1, Early: 0, Misses: 0
e43-> Hits: 7, Late: 0, Early: 0, Misses: 0
e44-> Hits: 2637, Late: 0, Early: 0, Misses: 0
e45-> Hits: 16044, Late: 2810, Early: 0, Misses: 0
e46-> Hits: 4635, Late: 0, Early: 0, Misses: 0
e47-> Hits: 8548, Late: 14167, Early: 0, Misses: 0
e48-> Hits: 384, Late: 0, Early: 0, Misses: 8
e49-> Hits: 5784, Late: 246, Early: 0, Misses: 0
e4a-> Hits: 1, Late: 14167, Early: 0, Misses: 0
e4b-> Hits: 4637, Late: 4789, Early: 0, Misses: 0
e4c-> Hits: 5, Late: 0, Early: 0, Misses: 0
e4d-> Hits: 9981, Late: 1, Early: 0, Misses: 0
e4f-> Hits: 4337, Late: 0, Early: 0, Misses: 0
e50-> Hits: 20479, Late: 1220, Early: 0, Misses: 0
e52-> Hits: 1, Late: 0, Early: 0, Misses: 0
e53-> Hits: 1, Late: 0, Early: 0, Misses: 0
e54-> Hits: 19022, Late: 4, Early: 0, Misses: 0
e55-> Hits: 0, Late: 1, Early: 0, Misses: 0
e56-> Hits: 13998, Late: 169, Early: 0, Misses: 0
e57-> Hits: 6792, Late: 592, Early: 0, Misses: 0
e58-> Hits: 199, Late: 1, Early: 0, Misses: 0
e5a-> Hits: 3114, Late: 0, Early: 0, Misses: 0
e5c-> Hits: 7823, Late: 1021, Early: 0, Misses: 0
e5d-> Hits: 8186, Late: 14167, Early: 0, Misses: 0
e5e-> Hits: 1090, Late: 2, Early: 0, Misses: 37
e5f-> Hits: 4396, Late: 19197, Early: 0, Misses: 0
e60-> Hits: 42, Late: 0, Early: 0, Misses: 0
e64-> Hits: 4147, Late: 1494, Early: 0, Misses: 0
e65-> Hits: 44, Late: 0, Early: 0, Misses: 0
e66-> Hits: 9684, Late: 0, Early: 0, Misses: 0
e6a-> Hits: 1, Late: 0, Early: 0, Misses: 0
e6b-> Hits: 31568, Late: 517, Early: 0, Misses: 1
e6c-> Hits: 259, Late: 1, Early: 0, Misses: 0
e6e-> Hits: 17212, Late: 1687, Early: 0, Misses: 0
e6f-> Hits: 13801, Late: 14167, Early: 0, Misses: 0
e70-> Hits: 1, Late: 0, Early: 0, Misses: 0
e72-> Hits: 8342, Late: 1084, Early: 0, Misses: 0
e73-> Hits: 48, Late: 0, Early: 0, Misses: 0
e77-> Hits: 4070, Late: 5374, Early: 0, Misses: 0
e78-> Hits: 1, Late: 0, Early: 0, Misses: 0
e79-> Hits: 500, Late: 9426, Early: 0, Misses: 1
e7a-> Hits: 18, Late: 0, Early: 0, Misses: 0
e7c-> Hits: 4020, Late: 1767, Early: 0, Misses: 0
e7d-> Hits: 1, Late: 0, Early: 0, Misses: 0
e82-> Hits: 169, Late: 0, Early: 0, Misses: 0
e83-> Hits: 672, Late: 611, Early: 0, Misses: 0
e85-> Hits: 0, Late: 14167, Early: 0, Misses: 0
e86-> Hits: 2459, Late: 0, Early: 0, Misses: 0
e88-> Hits: 13764, Late: 0, Early: 0, Misses: 1
e8c-> Hits: 0, Late: 1, Early: 0, Misses: 0
e8d-> Hits: 14713, Late: 1193, Early: 0, Misses: 1
e8f-> Hits: 14822, Late: 0, Early: 0, Misses: 59
e92-> Hits: 0, Late: 14167, Early: 0, Misses: 0
e93-> Hits: 1, Late: 0, Early: 0, Misses: 0
e94-> Hits: 3, Late: 0, Early: 0, Misses: 0
e95-> Hits: 12870, Late: 340, Early: 0, Misses: 956
e96-> Hits: 1, Late: 14167, Early: 0, Misses: 0
e97-> Hits: 434, Late: 8993, Early: 0, Misses: 0
e98-> Hits: 9691, Late: 0, Early: 0, Misses: 61
e99-> Hits: 9427, Late: 0, Early: 0, Misses: 0
e9c-> Hits: 18, Late: 9426, Early: 0, Misses: 0
e9e-> Hits: 1, Late: 0, Early: 0, Misses: 0
e9f-> Hits: 1, Late: 14167, Early: 0, Misses: 0
ea0-> Hits: 23417, Late: 0, Early: 0, Misses: 5
ea1-> Hits: 3, Late: 0, Early: 0, Misses: 0
ea2-> Hits: 1, Late: 0, Early: 0, Misses: 0
ea3-> Hits: 76, Late: 9350, Early: 0, Misses: 0
ea8-> Hits: 4150, Late: 1880, Early: 0, Misses: 0
ea9-> Hits: 9427, Late: 0, Early: 0, Misses: 0
eaa-> Hits: 1, Late: 0, Early: 0, Misses: 0
eab-> Hits: 7616, Late: 0, Early: 0, Misses: 0
eae-> Hits: 166, Late: 0, Early: 0, Misses: 3
eaf-> Hits: 42, Late: 9405, Early: 0, Misses: 0
eb0-> Hits: 1, Late: 0, Early: 0, Misses: 0
eb2-> Hits: 1, Late: 0, Early: 0, Misses: 0
eb5-> Hits: 14111, Late: 0, Early: 0, Misses: 0
eb8-> Hits: 1446, Late: 15, Early: 0, Misses: 0
eb9-> Hits: 1, Late: 0, Early: 0, Misses: 0
eba-> Hits: 0, Late: 14167, Early: 0, Misses: 0
ebc-> Hits: 9718, Late: 9153, Early: 0, Misses: 0
ebd-> Hits: 18856, Late: 0, Early: 0, Misses: 0
ebe-> Hits: 9427, Late: 0, Early: 0, Misses: 0
ebf-> Hits: 13698, Late: 0, Early: 0, Misses: 0
ec1-> Hits: 8, Late: 0, Early: 0, Misses: 0
ec2-> Hits: 3221, Late: 1134, Early: 0, Misses: 0
ec3-> Hits: 2, Late: 0, Early: 0, Misses: 0
ec4-> Hits: 1118, Late: 1, Early: 0, Misses: 130
ec5-> Hits: 1, Late: 0, Early: 0, Misses: 0
ec6-> Hits: 1, Late: 0, Early: 0, Misses: 0
ec7-> Hits: 9427, Late: 14167, Early: 0, Misses: 0
ec8-> Hits: 499, Late: 3528, Early: 0, Misses: 0
eca-> Hits: 1, Late: 0, Early: 0, Misses: 0
ecb-> Hits: 1, Late: 0, Early: 0, Misses: 0
ecc-> Hits: 28, Late: 0, Early: 0, Misses: 0
ecd-> Hits: 1, Late: 0, Early: 0, Misses: 0
ece-> Hits: 21802, Late: 592, Early: 0, Misses: 0
ecf-> Hits: 253, Late: 1194, Early: 0, Misses: 0
ed1-> Hits: 2, Late: 0, Early: 0, Misses: 0
ed2-> Hits: 1, Late: 1, Early: 0, Misses: 0
ed4-> Hits: 27, Late: 0, Early: 0, Misses: 0
ed5-> Hits: 145, Late: 3498, Early: 0, Misses: 0
ed6-> Hits: 7389, Late: 0, Early: 0, Misses: 0
eda-> Hits: 32565, Late: 1800, Early: 0, Misses: 6
edb-> Hits: 6558, Late: 843, Early: 0, Misses: 0
ede-> Hits: 9427, Late: 0, Early: 0, Misses: 0
ee0-> Hits: 9426, Late: 0, Early: 0, Misses: 0
ee3-> Hits: 1, Late: 0, Early: 0, Misses: 0
ee4-> Hits: 11525, Late: 6150, Early: 0, Misses: 0
ee7-> Hits: 168, Late: 1792, Early: 0, Misses: 0
eeb-> Hits: 806, Late: 1899, Early: 0, Misses: 0
eec-> Hits: 3380, Late: 1142, Early: 0, Misses: 0
eee-> Hits: 9382, Late: 0, Early: 0, Misses: 0
ef0-> Hits: 14167, Late: 0, Early: 0, Misses: 0
ef1-> Hits: 3852, Late: 0, Early: 0, Misses: 0
ef2-> Hits: 5739, Late: 718, Early: 0, Misses: 0
ef3-> Hits: 68, Late: 6, Early: 0, Misses: 11
ef5-> Hits: 9428, Late: 0, Early: 0, Misses: 0
ef6-> Hits: 0, Late: 1, Early: 0, Misses: 0
ef7-> Hits: 1, Late: 0, Early: 0, Misses: 0
ef8-> Hits: 648, Late: 1793, Early: 0, Misses: 0
ef9-> Hits: 12941, Late: 3478, Early: 0, Misses: 0
efa-> Hits: 1, Late: 1, Early: 0, Misses: 0
efb-> Hits: 9463, Late: 0, Early: 0, Misses: 0
efc-> Hits: 409, Late: 2, Early: 0, Misses: 0
efd-> Hits: 51, Late: 0, Early: 0, Misses: 0
efe-> Hits: 83, Late: 0, Early: 0, Misses: 2
eff-> Hits: 1, Late: 0, Early: 0, Misses: 0
f00-> Hits: 0, Late: 1, Early: 0, Misses: 0
f01-> Hits: 161, Late: 9265, Early: 0, Misses: 0
f02-> Hits: 7248, Late: 4604, Early: 0, Misses: 0
f03-> Hits: 9006, Late: 0, Early: 0, Misses: 420
f04-> Hits: 1, Late: 0, Early: 0, Misses: 0
f05-> Hits: 1, Late: 0, Early: 0, Misses: 0
f06-> Hits: 1304, Late: 6, Early: 0, Misses: 86
f08-> Hits: 7794, Late: 0, Early: 0, Misses: 0
f09-> Hits: 238, Late: 5, Early: 0, Misses: 0
f0a-> Hits: 1, Late: 0, Early: 0, Misses: 0
f0b-> Hits: 54, Late: 0, Early: 0, Misses: 0
f0c-> Hits: 9425, Late: 0, Early: 0, Misses: 1
f0d-> Hits: 4809, Late: 983, Early: 0, Misses: 2
f0f-> Hits: 35, Late: 1, Early: 0, Misses: 0
f12-> Hits: 7562, Late: 1166, Early: 0, Misses: 0
f14-> Hits: 9428, Late: 0, Early: 0, Misses: 0
f15-> Hits: 10328, Late: 1804, Early: 0, Misses: 0
f16-> Hits: 83, Late: 0, Early: 0, Misses: 2
f17-> Hits: 1, Late: 0, Early: 0, Misses: 0
f18-> Hits: 9426, Late: 0, Early: 0, Misses: 0
f19-> Hits: 9427, Late: 0, Early: 0, Misses: 0
f1b-> Hits: 1, Late: 1, Early: 0, Misses: 0
f1c-> Hits: 638, Late: 3, Early: 0, Misses: 37
f1d-> Hits: 9135, Late: 0, Early: 0, Misses: 0
f1e-> Hits: 9428, Late: 0, Early: 0, Misses: 0
f1f-> Hits: 84, Late: 0, Early: 0, Misses: 2
f20-> Hits: 34, Late: 0, Early: 0, Misses: 0
f21-> Hits: 5984, Late: 1204, Early: 0, Misses: 0
f22-> Hits: 822, Late: 8979, Early: 0, Misses: 0
f23-> Hits: 1529, Late: 1989, Early: 0, Misses: 0
f27-> Hits: 9426, Late: 0, Early: 0, Misses: 0
f28-> Hits: 2, Late: 0, Early: 0, Misses: 0
f2a-> Hits: 9427, Late: 0, Early: 0, Misses: 0
f2e-> Hits: 9463, Late: 0, Early: 0, Misses: 0
f30-> Hits: 1102, Late: 1926, Early: 0, Misses: 0
f31-> Hits: 9429, Late: 0, Early: 0, Misses: 0
f32-> Hits: 12370, Late: 48, Early: 0, Misses: 1750
f33-> Hits: 950, Late: 0, Early: 0, Misses: 0
f36-> Hits: 7059, Late: 1, Early: 0, Misses: 2367
f37-> Hits: 19614, Late: 8664, Early: 0, Misses: 0
f39-> Hits: 1, Late: 0, Early: 0, Misses: 0
f3b-> Hits: 9427, Late: 0, Early: 0, Misses: 0
f3d-> Hits: 9427, Late: 0, Early: 0, Misses: 0
f3e-> Hits: 11454, Late: 0, Early: 0, Misses: 0
f3f-> Hits: 8974, Late: 0, Early: 0, Misses: 0
f40-> Hits: 36, Late: 0, Early: 0, Misses: 0
f41-> Hits: 253, Late: 13914, Early: 0, Misses: 0
f42-> Hits: 1, Late: 1, Early: 0, Misses: 0
f43-> Hits: 4988, Late: 130, Early: 0, Misses: 0
f44-> Hits: 1, Late: 0, Early: 0, Misses: 0
f46-> Hits: 9427, Late: 0, Early: 0, Misses: 0
f48-> Hits: 15398, Late: 0, Early: 0, Misses: 26
f4a-> Hits: 1, Late: 0, Early: 0, Misses: 0
f4c-> Hits: 38, Late: 0, Early: 0, Misses: 0
f4d-> Hits: 2, Late: 0, Early: 0, Misses: 0
f4f-> Hits: 531, Late: 13636, Early: 0, Misses: 0
f50-> Hits: 7040, Late: 14685, Early: 0, Misses: 0
f51-> Hits: 14896, Late: 0, Early: 0, Misses: 0
f52-> Hits: 15814, Late: 1332, Early: 0, Misses: 0
f54-> Hits: 0, Late: 1, Early: 0, Misses: 0
f56-> Hits: 7192, Late: 1065, Early: 0, Misses: 0
f57-> Hits: 13181, Late: 5, Early: 0, Misses: 981
f58-> Hits: 18842, Late: 1, Early: 0, Misses: 0
f59-> Hits: 1, Late: 0, Early: 0, Misses: 0
f5a-> Hits: 6, Late: 0, Early: 0, Misses: 0
f5e-> Hits: 623, Late: 13842, Early: 0, Misses: 0
f5f-> Hits: 9364, Late: 1, Early: 0, Misses: 0
f60-> Hits: 1, Late: 0, Early: 0, Misses: 0
f61-> Hits: 6157, Late: 1063, Early: 0, Misses: 0
f64-> Hits: 12354, Late: 0, Early: 0, Misses: 0
f65-> Hits: 13234, Late: 718, Early: 0, Misses: 0
f66-> Hits: 2577, Late: 11591, Early: 0, Misses: 0
f67-> Hits: 5092, Late: 0, Early: 0, Misses: 0
f68-> Hits: 5646, Late: 0, Early: 0, Misses: 0
f69-> Hits: 76, Late: 0, Early: 0, Misses: 2
f6a-> Hits: 9427, Late: 0, Early: 0, Misses: 0
f6b-> Hits: 1, Late: 0, Early: 0, Misses: 0
f6c-> Hits: 8275, Late: 1151, Early: 0, Misses: 0
f6d-> Hits: 5438, Late: 0, Early: 0, Misses: 0
f70-> Hits: 13496, Late: 1167, Early: 0, Misses: 0
f71-> Hits: 219, Late: 13948, Early: 0, Misses: 0
f73-> Hits: 23492, Late: 9426, Early: 0, Misses: 181
f74-> Hits: 596, Late: 3, Early: 0, Misses: 69
f76-> Hits: 8995, Late: 0, Early: 0, Misses: 0
f78-> Hits: 2512, Late: 11655, Early: 0, Misses: 0
f79-> Hits: 9427, Late: 0, Early: 0, Misses: 0
f7c-> Hits: 0, Late: 1, Early: 0, Misses: 0
f7d-> Hits: 7633, Late: 813, Early: 0, Misses: 0
f7e-> Hits: 7831, Late: 1146, Early: 0, Misses: 0
f80-> Hits: 9844, Late: 0, Early: 0, Misses: 10
f83-> Hits: 2597, Late: 20996, Early: 0, Misses: 0
f86-> Hits: 2, Late: 0, Early: 0, Misses: 0
f87-> Hits: 83, Late: 2, Early: 0, Misses: 0
f89-> Hits: 610, Late: 8816, Early: 0, Misses: 0
f8a-> Hits: 186, Late: 0, Early: 0, Misses: 3
f8c-> Hits: 9427, Late: 0, Early: 0, Misses: 0
f8d-> Hits: 381, Late: 0, Early: 0, Misses: 0
f8f-> Hits: 19, Late: 9407, Early: 0, Misses: 0
f90-> Hits: 9427, Late: 0, Early: 0, Misses: 0
f91-> Hits: 1, Late: 0, Early: 0, Misses: 0
f92-> Hits: 9127, Late: 0, Early: 0, Misses: 0
f93-> Hits: 9427, Late: 0, Early: 0, Misses: 0
f94-> Hits: 3304, Late: 2726, Early: 0, Misses: 0
f95-> Hits: 9427, Late: 0, Early: 0, Misses: 0
f97-> Hits: 4223, Late: 1163, Early: 0, Misses: 0
f99-> Hits: 6572, Late: 1, Early: 0, Misses: 2865
f9a-> Hits: 16144, Late: 2710, Early: 0, Misses: 0
f9c-> Hits: 5155, Late: 304, Early: 0, Misses: 0
f9d-> Hits: 1800, Late: 12367, Early: 0, Misses: 0
f9e-> Hits: 4058, Late: 840, Early: 0, Misses: 0
fa0-> Hits: 671, Late: 2371, Early: 0, Misses: 4987
fa2-> Hits: 570, Late: 0, Early: 0, Misses: 3
fa4-> Hits: 1360, Late: 2, Early: 0, Misses: 0
fa5-> Hits: 9652, Late: 14025, Early: 0, Misses: 2
fa6-> Hits: 111, Late: 11, Early: 0, Misses: 834
fa7-> Hits: 1605, Late: 7831, Early: 0, Misses: 0
fa8-> Hits: 2251, Late: 0, Early: 0, Misses: 0
fa9-> Hits: 1, Late: 0, Early: 0, Misses: 0
faa-> Hits: 9427, Late: 0, Early: 0, Misses: 0
fab-> Hits: 9135, Late: 1, Early: 0, Misses: 290
fac-> Hits: 9665, Late: 0, Early: 0, Misses: 0
fad-> Hits: 2698, Late: 12437, Early: 0, Misses: 0
faf-> Hits: 9, Late: 0, Early: 0, Misses: 0
fb0-> Hits: 1, Late: 9426, Early: 0, Misses: 0
fb1-> Hits: 613, Late: 8813, Early: 0, Misses: 0
fb2-> Hits: 176, Late: 14027, Early: 0, Misses: 0
fb3-> Hits: 1, Late: 0, Early: 0, Misses: 0
fb4-> Hits: 9818, Late: 0, Early: 0, Misses: 0
fb6-> Hits: 9635, Late: 2, Early: 0, Misses: 194
fb8-> Hits: 1, Late: 0, Early: 0, Misses: 0
fba-> Hits: 9427, Late: 0, Early: 0, Misses: 0
fbb-> Hits: 1774, Late: 7652, Early: 0, Misses: 0
fbd-> Hits: 10, Late: 0, Early: 0, Misses: 0
fbe-> Hits: 3271, Late: 8354, Early: 0, Misses: 0
fbf-> Hits: 9427, Late: 0, Early: 0, Misses: 0
fc0-> Hits: 10, Late: 0, Early: 0, Misses: 0
fc1-> Hits: 1, Late: 0, Early: 0, Misses: 0
fc2-> Hits: 9438, Late: 0, Early: 0, Misses: 0
fc4-> Hits: 697, Late: 1733, Early: 0, Misses: 0
fc6-> Hits: 10, Late: 0, Early: 0, Misses: 0
fc7-> Hits: 9427, Late: 0, Early: 0, Misses: 0
fc8-> Hits: 9437, Late: 0, Early: 0, Misses: 0
fcb-> Hits: 1, Late: 0, Early: 0, Misses: 0
fcc-> Hits: 7494, Late: 11, Early: 0, Misses: 918
fcd-> Hits: 9434, Late: 14167, Early: 0, Misses: 0
fce-> Hits: 11973, Late: 2193, Early: 0, Misses: 0
fcf-> Hits: 8870, Late: 0, Early: 0, Misses: 0
fd0-> Hits: 9427, Late: 0, Early: 0, Misses: 0
fd1-> Hits: 9464, Late: 0, Early: 0, Misses: 0
fd2-> Hits: 241, Late: 23388, Early: 0, Misses: 0
fd3-> Hits: 8219, Late: 0, Early: 0, Misses: 1244
fd5-> Hits: 36, Late: 0, Early: 0, Misses: 0
fd6-> Hits: 9261, Late: 0, Early: 0, Misses: 165
fd7-> Hits: 7173, Late: 1170, Early: 0, Misses: 0
fd8-> Hits: 9366, Late: 0, Early: 0, Misses: 0
fd9-> Hits: 36, Late: 0, Early: 0, Misses: 0
fda-> Hits: 9427, Late: 0, Early: 0, Misses: 0
fdb-> Hits: 36, Late: 14167, Early: 0, Misses: 0
fdc-> Hits: 0, Late: 1, Early: 0, Misses: 0
fdd-> Hits: 3248, Late: 0, Early: 0, Misses: 0
fde-> Hits: 8902, Late: 0, Early: 0, Misses: 0
fe0-> Hits: 0, Late: 14167, Early: 0, Misses: 0
fe2-> Hits: 13038, Late: 1128, Early: 0, Misses: 0
fe3-> Hits: 28281, Late: 0, Early: 0, Misses: 0
fe4-> Hits: 698, Late: 1173, Early: 0, Misses: 990
fe5-> Hits: 9584, Late: 9269, Early: 0, Misses: 0
fe6-> Hits: 1, Late: 0, Early: 0, Misses: 0
fea-> Hits: 9426, Late: 0, Early: 0, Misses: 0
feb-> Hits: 1, Late: 0, Early: 0, Misses: 0
fec-> Hits: 9428, Late: 0, Early: 0, Misses: 0
fed-> Hits: 2, Late: 0, Early: 0, Misses: 0
fee-> Hits: 1768, Late: 1140, Early: 0, Misses: 0
ff0-> Hits: 9275, Late: 14167, Early: 0, Misses: 0
ff1-> Hits: 9275, Late: 0, Early: 0, Misses: 153
ff2-> Hits: 4681, Late: 878, Early: 0, Misses: 0
ff3-> Hits: 1, Late: 14167, Early: 0, Misses: 0
ff5-> Hits: 8336, Late: 0, Early: 0, Misses: 0
ff6-> Hits: 521, Late: 0, Early: 0, Misses: 0
ff8-> Hits: 488, Late: 27, Early: 0, Misses: 0
ff9-> Hits: 9548, Late: 9306, Early: 0, Misses: 0
ffb-> Hits: 130, Late: 0, Early: 0, Misses: 0
ffd-> Hits: 11943, Late: 1138, Early: 0, Misses: 0
ffe-> Hits: 1147, Late: 0, Early: 0, Misses: 10
fff-> Hits: 9427, Late: 0, Early: 0, Misses: 0
Total misses (from ip) 8375993
Total accesses (misses) 24232271 8375993
Pref: Addr 0 IP 0 Current 0

DRAM Statistics
 CHANNEL 0
 RQ ROW_BUFFER_HIT:     188504  ROW_BUFFER_MISS:     203223
 DBUS_CONGESTED:         59
 WQ ROW_BUFFER_HIT:      23341  ROW_BUFFER_MISS:      23817  FULL:          0

 AVG_CONGESTED_CYCLE: 5
 All warmup complete: 2
Channel 0 Bank busy for read cycles: 0
Channel 0 Bank busy for write cycles: 0
Channel 0
Rank 0
0banks busy for read cycles: 38804934
0banks busy for write cycles: 11838
1banks busy for read cycles: 8278983
1banks busy for write cycles: 1990397
2banks busy for read cycles: 1719608
2banks busy for write cycles: 938072
3banks busy for read cycles: 8178463
3banks busy for write cycles: 1413885
4banks busy for read cycles: 769377
4banks busy for write cycles: 397113
5banks busy for read cycles: 104441
5banks busy for write cycles: 29700
6banks busy for read cycles: 8646
6banks busy for write cycles: 8733
7banks busy for read cycles: 426
7banks busy for write cycles: 1634
8banks busy for read cycles: 142
8banks busy for write cycles: 368

CPU 0 Branch Prediction Accuracy: 97.6117% MPKI: 0.04808 Average ROB Occupancy at Mispredict: 18.9405
Branch types
NOT_BRANCH: 49899054 99.7981%
BRANCH_DIRECT_JUMP: 16920 0.03384%
BRANCH_INDIRECT: 14629 0.029258%
BRANCH_CONDITIONAL: 57074 0.114148%
BRANCH_DIRECT_CALL: 6013 0.012026%
BRANCH_INDIRECT_CALL: 3 6e-06%
BRANCH_RETURN: 6018 0.012036%
BRANCH_OTHER: 0 0%

DRAM PAGES: 1048576
Allocated PAGES: 8641
